<?xml version="1.0" encoding="UTF-8"?>

<!-- generated on 11/12/20 23:58:07 by Eclipse SUMO netedit Version 1.7.0
<configuration xmlns:xsi="http://www.w3.org/2001/XMLSchema-instance" xsi:noNamespaceSchemaLocation="http://sumo.dlr.de/xsd/netconvertConfiguration.xsd">

    <input>
        <sumo-net-file value="C:\Users\Sandrus\Documents\Research\SUMO\SUMO_DEMOS\Parkings\ThreeEdges_OneCar_Parking\threeEdges_OneCar.net.xml"/>
    </input>

    <output>
        <output-file value="C:\Users\Sandrus\Documents\Research\SUMO\SUMO_DEMOS\Parkings\ThreeEdges_OneCar_Parking\threeEdges_OneCar.net.xml"/>
    </output>

    <processing>
        <geometry.min-radius.fix.railways value="false"/>
        <geometry.max-grade.fix value="false"/>
        <offset.disable-normalization value="true"/>
        <lefthand value="false"/>
    </processing>

    <junctions>
        <no-turnarounds value="true"/>
        <junctions.corner-detail value="5"/>
        <junctions.limit-turn-speed value="5.5"/>
        <rectangular-lane-cut value="false"/>
    </junctions>

    <pedestrian>
        <walkingareas value="false"/>
    </pedestrian>

    <netedit>
        <additional-files value="C:\Users\Sandrus\Documents\Research\SUMO\SUMO_DEMOS\Parkings\ThreeEdges_OneCar_Parking\threeEdges_OneCar_Parking.add.xml"/>
        <route-files value="C:\Users\Sandrus\Documents\Research\SUMO\SUMO_DEMOS\Parkings\ThreeEdges_OneCar_Parking\threeEdges_Onecar.rou.xml"/>
    </netedit>

    <report>
        <aggregate-warnings value="5"/>
    </report>

</configuration>
-->

<routes xmlns:xsi="http://www.w3.org/2001/XMLSchema-instance" xsi:noNamespaceSchemaLocation="http://sumo.dlr.de/xsd/routes_file.xsd">
    <vType id="CarType"/>
    <vType id="electricCar" vClass="evehicle" emissionClass="Energy/default" color="red"/>
    <vType id="electricCarZeroEmissions" maneuverAngleTimes="10 3.0 4.0,80 1.6 11.0,110 11.0 2.0,170 8.1 3.0,181 3.0 4.0"/>
    <route edges="-edge2 -edge1" color="green" id="route_1"/>
    <vehicle id="vehicle_1" type="CarType" depart="0.00" color="blue" route="route_1">
        <stop parkingArea="parkingArea_0" duration="50.00"/>
    </vehicle>
    <vehicle id="vehicle_electric" type="electricCar" depart="0.00" route="route_1">
        <stop parkingArea="parkingArea_0" duration="50.00"/>
    </vehicle>
    <vehicle id="vehicle_zeroEmissions" type="electricCarZeroEmissions" depart="0.00" route="route_1">
        <stop parkingArea="parkingArea_0" duration="50.00"/>
    </vehicle>
    <trip id="vehicle_0" type="CarType" depart="0.00" from="edge1" to="edge2"/>
</routes>
