<?xml version="1.0" encoding="UTF-8"?>

<!-- generated on 10/08/20 16:31:19 by Eclipse SUMO netedit Version 1.7.0
<configuration xmlns:xsi="http://www.w3.org/2001/XMLSchema-instance" xsi:noNamespaceSchemaLocation="http://sumo.dlr.de/xsd/netconvertConfiguration.xsd">

    <input>
        <sumo-net-file value="C:\Users\Sandrus\Documents\Research\SUMO\SUMO_DEMOS\6SumoTutorial-SUMOlympics\sumolypics.net.xml"/>
    </input>

    <output>
        <output-file value="C:\Users\Sandrus\Documents\Research\SUMO\SUMO_DEMOS\6SumoTutorial-SUMOlympics\sumolypics.net.xml"/>
    </output>

    <processing>
        <geometry.min-radius.fix.railways value="false"/>
        <geometry.max-grade.fix value="false"/>
        <offset.disable-normalization value="true"/>
        <lefthand value="false"/>
    </processing>

    <junctions>
        <no-internal-links value="true"/>
        <no-turnarounds value="true"/>
        <junctions.corner-detail value="5"/>
        <junctions.limit-turn-speed value="5.5"/>
        <rectangular-lane-cut value="false"/>
    </junctions>

    <pedestrian>
        <walkingareas value="false"/>
    </pedestrian>

    <netedit>
        <route-files value="C:\Users\Sandrus\Documents\Research\SUMO\SUMO_DEMOS\6SumoTutorial-SUMOlympics\sumolympics.rou.xml"/>
    </netedit>

    <report>
        <aggregate-warnings value="5"/>
    </report>

</configuration>
-->

<routes xmlns:xsi="http://www.w3.org/2001/XMLSchema-instance" xsi:noNamespaceSchemaLocation="http://sumo.dlr.de/xsd/routes_file.xsd">
    <vType id="bike" length="1.80" maxSpeed="7.50" speedFactor="normc(1.00,0.50,0.20,2.00)" vClass="bicycle" width="0.80" accel="0.8" decel="1.5" sigma="0.5"/>
    <vType id="bus" length="15.00" maxSpeed="30.00" speedFactor="normc(1.00,0.10,0.20,2.00)" vClass="bus" accel="1.2" decel="2.5" sigma="0.1"/>
    <vType id="pkw" length="5.00" maxSpeed="50.00" speedFactor="normc(1.00,0.20,0.20,2.00)" vClass="passenger" accel="2.6" decel="4.5" sigma="0.2"/>
    <vType id="tram" length="40.00" maxSpeed="13.00" speedFactor="normc(1.00,0.10,0.20,2.00)" vClass="rail_urban" accel="0.8" decel="0.5" sigma="0.1"/>
    <flow id="bikeF" type="bike" begin="0.00" departPos="last" from="beg" to="end" end="9000.00" number="100"/>
    <flow id="busF" type="bus" begin="0.00" departPos="last" from="beg" to="end" end="9000.00" number="5"/>
    <flow id="pkwF" type="pkw" begin="0.00" departPos="last" from="beg" to="end" end="9000.00" number="66"/>
    <flow id="tramF" type="tram" begin="0.00" departPos="last" from="beg" to="end" end="9000.00" number="2"/>
</routes>
