<?xml version="1.0" encoding="UTF-8"?>
<!-- generated on 2020-11-27 17:02:20.989929 by createNetTaxi.py v1_7_0+0000-714814baed
  options: 
-->
<nodes xmlns:xsi="http://www.w3.org/2001/XMLSchema-instance" xsi:noNamespaceSchemaLocation="http://sumo.dlr.de/xsd/nodes_file.xsd">
<node id="in" x="-100" y="0"/>
<node id="main0" x="0" y="0"/>
<node id="main1" x="29" y="0"/>
<node id="main2" x="58" y="0"/>
<node id="main3" x="87" y="0"/>
<node id="main4" x="116" y="0"/>
<node id="main5" x="145" y="0"/>
<node id="main6" x="174" y="0"/>
<node id="main7" x="203" y="0"/>
<node id="out" x="303" y="0"/>
<node id="cyber" x="-100" y="65"/>
<node id="cyber0" x="0" y="65"/>
<node id="cyber1" x="29" y="65"/>
<node id="cyber2" x="58" y="65"/>
<node id="cyber3" x="87" y="65"/>
<node id="cyber4" x="116" y="65"/>
<node id="cyber5" x="145" y="65"/>
<node id="cyber6" x="174" y="65"/>
<node id="cyber7" x="203" y="65"/>
<node id="cyberend" x="303" y="65"/>
</nodes>
