<?xml version="1.0" encoding="UTF-8"?>
<!-- generated on 2020-11-27 17:02:21.196154 by createNetTaxi.py v1_7_0+0000-714814baed
  options: 
-->
<additional xmlns:xsi="http://www.w3.org/2001/XMLSchema-instance" xsi:noNamespaceSchemaLocation="http://sumo.dlr.de/xsd/additional_file.xsd">
    <parkingArea id="ParkArea0" lane="road0_1" roadsideCapacity="10" angle="270" length="8"/>
    <parkingArea id="ParkArea-0" lane="-road0_1" roadsideCapacity="10" angle="270" length="8"/>
    <parkingArea id="ParkArea1" lane="road1_1" roadsideCapacity="10" angle="270" length="8"/>
    <parkingArea id="ParkArea-1" lane="-road1_1" roadsideCapacity="10" angle="270" length="8"/>
    <parkingArea id="ParkArea2" lane="road2_1" roadsideCapacity="10" angle="270" length="8"/>
    <parkingArea id="ParkArea-2" lane="-road2_1" roadsideCapacity="10" angle="270" length="8"/>
    <parkingArea id="ParkArea3" lane="road3_1" roadsideCapacity="10" angle="270" length="8"/>
    <parkingArea id="ParkArea-3" lane="-road3_1" roadsideCapacity="10" angle="270" length="8"/>
    <parkingArea id="ParkArea4" lane="road4_1" roadsideCapacity="10" angle="270" length="8"/>
    <parkingArea id="ParkArea-4" lane="-road4_1" roadsideCapacity="10" angle="270" length="8"/>
    <parkingArea id="ParkArea5" lane="road5_1" roadsideCapacity="10" angle="270" length="8"/>
    <parkingArea id="ParkArea-5" lane="-road5_1" roadsideCapacity="10" angle="270" length="8"/>
    <parkingArea id="ParkArea6" lane="road6_1" roadsideCapacity="10" angle="270" length="8"/>
    <parkingArea id="ParkArea-6" lane="-road6_1" roadsideCapacity="10" angle="270" length="8"/>
    <parkingArea id="ParkArea7" lane="road7_1" roadsideCapacity="10" angle="270" length="8"/>
    <parkingArea id="ParkArea-7" lane="-road7_1" roadsideCapacity="10" angle="270" length="8"/>
    <busStop id="cyber0to1stop" lane="cyber0to1_1" startPos="2" endPos="12"/>
    <busStop id="cyber1to2stop" lane="cyber1to2_1" startPos="2" endPos="12"/>
    <busStop id="cyber2to3stop" lane="cyber2to3_1" startPos="2" endPos="12"/>
    <busStop id="cyber3to4stop" lane="cyber3to4_1" startPos="2" endPos="12"/>
    <busStop id="cyber4to5stop" lane="cyber4to5_1" startPos="2" endPos="12"/>
    <busStop id="cyber5to6stop" lane="cyber5to6_1" startPos="2" endPos="12"/>
    <busStop id="cyber6to7stop" lane="cyber6to7_1" startPos="2" endPos="12"/>
    <vType id="car" color="0.7,0.7,0.7"/>
    <vType id="ped_pedestrian" vClass="pedestrian" color="1,0.2,0.2"/>
    <vType id="cybercar" vClass="taxi" length="9" minGap="1" guiShape="evehicle" maxSpeed="5"
           color="green" emissionClass="HBEFA2/P_7_7" personCapacity="20">
        <param key="has.taxi.device" value="true"/>
    </vType>
    <vType id="bus" vClass="bus" color="blue" personCapacity="30"/>

</additional>
