<?xml version="1.0" encoding="UTF-8"?>

<!-- generated on 11/27/20 17:02:21 by Eclipse SUMO netconvert Version 1.7.0
<configuration xmlns:xsi="http://www.w3.org/2001/XMLSchema-instance" xsi:noNamespaceSchemaLocation="http://sumo.dlr.de/xsd/netconvertConfiguration.xsd">

    <input>
        <node-files value="park.nod.xml"/>
        <edge-files value="park.edg.xml"/>
    </input>

    <output>
        <output-file value="park.net.xml"/>
    </output>

    <report>
        <aggregate-warnings value="5"/>
    </report>

</configuration>
-->

<net version="1.6" junctionCornerDetail="5" limitTurnSpeed="5.50" xmlns:xsi="http://www.w3.org/2001/XMLSchema-instance" xsi:noNamespaceSchemaLocation="http://sumo.dlr.de/xsd/net_file.xsd">

    <location netOffset="100.00,0.00" convBoundary="0.00,0.00,403.00,65.00" origBoundary="-100.00,0.00,303.00,65.00" projParameter="!"/>

    <edge id=":cyber_0" function="internal">
        <lane id=":cyber_0_0" index="0" allow="taxi bus" speed="3.65" length="4.67" shape="-0.00,66.60 -1.20,65.80 -1.60,65.00 -1.20,64.20 -0.00,63.40"/>
    </edge>
    <edge id=":cyber0_0" function="internal">
        <lane id=":cyber0_0_0" index="0" allow="taxi bus" speed="13.89" length="14.38" shape="107.18,69.80 92.80,69.80"/>
        <lane id=":cyber0_0_1" index="1" allow="taxi bus" speed="13.89" length="14.38" shape="107.19,66.60 92.80,66.60"/>
    </edge>
    <edge id=":cyber0_2" function="internal">
        <lane id=":cyber0_2_0" index="0" allow="taxi bus" speed="8.67" length="5.24" shape="107.19,66.60 103.34,65.85 102.32,65.01"/>
    </edge>
    <edge id=":cyber0_3" function="internal">
        <lane id=":cyber0_3_0" index="0" allow="taxi bus" speed="3.65" length="2.33" shape="107.19,66.60 105.99,65.80 105.60,65.00"/>
    </edge>
    <edge id=":cyber0_11" function="internal">
        <lane id=":cyber0_11_0" index="0" allow="taxi bus" speed="8.67" length="11.59" shape="102.32,65.01 100.60,63.60 98.95,59.85 98.40,54.60"/>
    </edge>
    <edge id=":cyber0_12" function="internal">
        <lane id=":cyber0_12_0" index="0" allow="taxi bus" speed="3.65" length="2.33" shape="105.60,65.00 105.99,64.20 107.19,63.41"/>
    </edge>
    <edge id=":cyber0_4" function="internal">
        <lane id=":cyber0_4_0" index="0" allow="taxi bus" speed="6.51" length="9.03" shape="101.60,54.60 101.95,57.05 103.00,58.80 104.75,59.86 107.19,60.21"/>
    </edge>
    <edge id=":cyber0_5" function="internal">
        <lane id=":cyber0_5_0" index="0" allow="taxi bus" speed="8.67" length="16.85" shape="101.60,54.60 101.05,59.85 99.40,63.60 96.65,65.85 92.80,66.60"/>
    </edge>
    <edge id=":cyber0_6" function="internal">
        <lane id=":cyber0_6_0" index="0" disallow="pedestrian" speed="3.65" length="4.67" shape="101.60,54.60 100.80,55.80 100.00,56.20 99.20,55.80 98.40,54.60"/>
    </edge>
    <edge id=":cyber0_7" function="internal">
        <lane id=":cyber0_7_0" index="0" allow="taxi bus" speed="6.51" length="9.03" shape="92.80,60.20 95.25,59.85 97.00,58.80 98.05,57.05 98.40,54.60"/>
    </edge>
    <edge id=":cyber0_8" function="internal">
        <lane id=":cyber0_8_0" index="0" allow="taxi bus" speed="13.89" length="14.39" shape="92.80,60.20 107.19,60.21"/>
        <lane id=":cyber0_8_1" index="1" allow="taxi bus" speed="13.89" length="14.39" shape="92.80,63.40 107.19,63.41"/>
    </edge>
    <edge id=":cyber0_10" function="internal">
        <lane id=":cyber0_10_0" index="0" allow="taxi bus" speed="3.65" length="2.33" shape="92.80,63.40 94.00,64.20 94.40,65.00"/>
    </edge>
    <edge id=":cyber0_13" function="internal">
        <lane id=":cyber0_13_0" index="0" allow="taxi bus" speed="3.65" length="2.33" shape="94.40,65.00 94.00,65.80 92.80,66.60"/>
    </edge>
    <edge id=":cyber1_0" function="internal">
        <lane id=":cyber1_0_0" index="0" allow="taxi bus" speed="13.89" length="14.38" shape="136.18,69.80 121.81,69.79"/>
        <lane id=":cyber1_0_1" index="1" allow="taxi bus" speed="13.89" length="14.38" shape="136.19,66.60 121.81,66.59"/>
    </edge>
    <edge id=":cyber1_2" function="internal">
        <lane id=":cyber1_2_0" index="0" allow="taxi bus" speed="8.67" length="5.23" shape="136.19,66.60 132.34,65.85 131.33,65.02"/>
    </edge>
    <edge id=":cyber1_3" function="internal">
        <lane id=":cyber1_3_0" index="0" allow="taxi bus" speed="3.65" length="2.33" shape="136.19,66.60 134.99,65.80 134.60,65.00"/>
    </edge>
    <edge id=":cyber1_11" function="internal">
        <lane id=":cyber1_11_0" index="0" allow="taxi bus" speed="8.67" length="11.60" shape="131.33,65.02 129.60,63.60 127.95,59.85 127.40,54.61"/>
    </edge>
    <edge id=":cyber1_12" function="internal">
        <lane id=":cyber1_12_0" index="0" allow="taxi bus" speed="3.65" length="2.33" shape="134.60,65.00 134.99,64.20 136.19,63.41"/>
    </edge>
    <edge id=":cyber1_4" function="internal">
        <lane id=":cyber1_4_0" index="0" allow="taxi bus" speed="6.51" length="9.03" shape="130.60,54.61 130.95,57.06 132.00,58.81 133.75,59.86 136.19,60.21"/>
    </edge>
    <edge id=":cyber1_5" function="internal">
        <lane id=":cyber1_5_0" index="0" allow="taxi bus" speed="8.67" length="16.83" shape="130.60,54.61 130.05,59.85 128.40,63.59 125.65,65.83 121.81,66.59"/>
    </edge>
    <edge id=":cyber1_6" function="internal">
        <lane id=":cyber1_6_0" index="0" disallow="pedestrian" speed="3.65" length="4.67" shape="130.60,54.61 129.80,55.81 129.00,56.21 128.20,55.81 127.40,54.61"/>
    </edge>
    <edge id=":cyber1_7" function="internal">
        <lane id=":cyber1_7_0" index="0" allow="taxi bus" speed="6.51" length="9.05" shape="121.80,60.23 124.25,59.88 126.00,58.83 127.05,57.07 127.40,54.61"/>
    </edge>
    <edge id=":cyber1_8" function="internal">
        <lane id=":cyber1_8_0" index="0" allow="taxi bus" speed="13.89" length="14.39" shape="121.80,60.23 136.19,60.21"/>
        <lane id=":cyber1_8_1" index="1" allow="taxi bus" speed="13.89" length="14.39" shape="121.80,63.43 136.19,63.41"/>
    </edge>
    <edge id=":cyber1_10" function="internal">
        <lane id=":cyber1_10_0" index="0" allow="taxi bus" speed="3.63" length="2.30" shape="121.80,63.43 122.99,64.22 123.38,65.01"/>
    </edge>
    <edge id=":cyber1_13" function="internal">
        <lane id=":cyber1_13_0" index="0" allow="taxi bus" speed="3.63" length="2.30" shape="123.38,65.01 122.99,65.80 121.81,66.59"/>
    </edge>
    <edge id=":cyber2_0" function="internal">
        <lane id=":cyber2_0_0" index="0" allow="taxi bus" speed="13.89" length="14.38" shape="165.18,69.80 150.81,69.79"/>
        <lane id=":cyber2_0_1" index="1" allow="taxi bus" speed="13.89" length="14.38" shape="165.19,66.60 150.81,66.59"/>
    </edge>
    <edge id=":cyber2_2" function="internal">
        <lane id=":cyber2_2_0" index="0" allow="taxi bus" speed="8.67" length="5.23" shape="165.19,66.60 161.34,65.85 160.33,65.02"/>
    </edge>
    <edge id=":cyber2_3" function="internal">
        <lane id=":cyber2_3_0" index="0" allow="taxi bus" speed="3.65" length="2.33" shape="165.19,66.60 163.99,65.80 163.60,65.00"/>
    </edge>
    <edge id=":cyber2_11" function="internal">
        <lane id=":cyber2_11_0" index="0" allow="taxi bus" speed="8.67" length="11.60" shape="160.33,65.02 158.60,63.60 156.95,59.85 156.40,54.61"/>
    </edge>
    <edge id=":cyber2_12" function="internal">
        <lane id=":cyber2_12_0" index="0" allow="taxi bus" speed="3.65" length="2.33" shape="163.60,65.00 163.99,64.20 165.19,63.41"/>
    </edge>
    <edge id=":cyber2_4" function="internal">
        <lane id=":cyber2_4_0" index="0" allow="taxi bus" speed="6.51" length="9.03" shape="159.60,54.61 159.95,57.06 161.00,58.81 162.75,59.86 165.19,60.21"/>
    </edge>
    <edge id=":cyber2_5" function="internal">
        <lane id=":cyber2_5_0" index="0" allow="taxi bus" speed="8.67" length="16.83" shape="159.60,54.61 159.05,59.85 157.40,63.59 154.65,65.83 150.81,66.59"/>
    </edge>
    <edge id=":cyber2_6" function="internal">
        <lane id=":cyber2_6_0" index="0" disallow="pedestrian" speed="3.65" length="4.67" shape="159.60,54.61 158.80,55.81 158.00,56.21 157.20,55.81 156.40,54.61"/>
    </edge>
    <edge id=":cyber2_7" function="internal">
        <lane id=":cyber2_7_0" index="0" allow="taxi bus" speed="6.51" length="9.05" shape="150.80,60.23 153.25,59.88 155.00,58.83 156.05,57.07 156.40,54.61"/>
    </edge>
    <edge id=":cyber2_8" function="internal">
        <lane id=":cyber2_8_0" index="0" allow="taxi bus" speed="13.89" length="14.39" shape="150.80,60.23 165.19,60.21"/>
        <lane id=":cyber2_8_1" index="1" allow="taxi bus" speed="13.89" length="14.39" shape="150.80,63.43 165.19,63.41"/>
    </edge>
    <edge id=":cyber2_10" function="internal">
        <lane id=":cyber2_10_0" index="0" allow="taxi bus" speed="3.63" length="2.30" shape="150.80,63.43 151.99,64.22 152.38,65.01"/>
    </edge>
    <edge id=":cyber2_13" function="internal">
        <lane id=":cyber2_13_0" index="0" allow="taxi bus" speed="3.63" length="2.30" shape="152.38,65.01 151.99,65.80 150.81,66.59"/>
    </edge>
    <edge id=":cyber3_0" function="internal">
        <lane id=":cyber3_0_0" index="0" allow="taxi bus" speed="13.89" length="14.38" shape="194.18,69.80 179.81,69.79"/>
        <lane id=":cyber3_0_1" index="1" allow="taxi bus" speed="13.89" length="14.38" shape="194.19,66.60 179.81,66.59"/>
    </edge>
    <edge id=":cyber3_2" function="internal">
        <lane id=":cyber3_2_0" index="0" allow="taxi bus" speed="8.67" length="5.23" shape="194.19,66.60 190.34,65.85 189.33,65.02"/>
    </edge>
    <edge id=":cyber3_3" function="internal">
        <lane id=":cyber3_3_0" index="0" allow="taxi bus" speed="3.65" length="2.33" shape="194.19,66.60 192.99,65.80 192.60,65.00"/>
    </edge>
    <edge id=":cyber3_11" function="internal">
        <lane id=":cyber3_11_0" index="0" allow="taxi bus" speed="8.67" length="11.60" shape="189.33,65.02 187.60,63.60 185.95,59.85 185.40,54.61"/>
    </edge>
    <edge id=":cyber3_12" function="internal">
        <lane id=":cyber3_12_0" index="0" allow="taxi bus" speed="3.65" length="2.33" shape="192.60,65.00 192.99,64.20 194.19,63.41"/>
    </edge>
    <edge id=":cyber3_4" function="internal">
        <lane id=":cyber3_4_0" index="0" allow="taxi bus" speed="6.51" length="9.03" shape="188.60,54.61 188.95,57.06 190.00,58.81 191.75,59.86 194.19,60.21"/>
    </edge>
    <edge id=":cyber3_5" function="internal">
        <lane id=":cyber3_5_0" index="0" allow="taxi bus" speed="8.67" length="16.83" shape="188.60,54.61 188.05,59.85 186.40,63.59 183.65,65.83 179.81,66.59"/>
    </edge>
    <edge id=":cyber3_6" function="internal">
        <lane id=":cyber3_6_0" index="0" disallow="pedestrian" speed="3.65" length="4.67" shape="188.60,54.61 187.80,55.81 187.00,56.21 186.20,55.81 185.40,54.61"/>
    </edge>
    <edge id=":cyber3_7" function="internal">
        <lane id=":cyber3_7_0" index="0" allow="taxi bus" speed="6.51" length="9.05" shape="179.80,60.23 182.25,59.88 184.00,58.83 185.05,57.07 185.40,54.61"/>
    </edge>
    <edge id=":cyber3_8" function="internal">
        <lane id=":cyber3_8_0" index="0" allow="taxi bus" speed="13.89" length="14.39" shape="179.80,60.23 194.19,60.21"/>
        <lane id=":cyber3_8_1" index="1" allow="taxi bus" speed="13.89" length="14.39" shape="179.80,63.43 194.19,63.41"/>
    </edge>
    <edge id=":cyber3_10" function="internal">
        <lane id=":cyber3_10_0" index="0" allow="taxi bus" speed="3.63" length="2.30" shape="179.80,63.43 180.99,64.22 181.38,65.01"/>
    </edge>
    <edge id=":cyber3_13" function="internal">
        <lane id=":cyber3_13_0" index="0" allow="taxi bus" speed="3.63" length="2.30" shape="181.38,65.01 180.99,65.80 179.81,66.59"/>
    </edge>
    <edge id=":cyber4_0" function="internal">
        <lane id=":cyber4_0_0" index="0" allow="taxi bus" speed="13.89" length="14.38" shape="223.18,69.80 208.81,69.79"/>
        <lane id=":cyber4_0_1" index="1" allow="taxi bus" speed="13.89" length="14.38" shape="223.19,66.60 208.81,66.59"/>
    </edge>
    <edge id=":cyber4_2" function="internal">
        <lane id=":cyber4_2_0" index="0" allow="taxi bus" speed="8.67" length="5.23" shape="223.19,66.60 219.34,65.85 218.33,65.02"/>
    </edge>
    <edge id=":cyber4_3" function="internal">
        <lane id=":cyber4_3_0" index="0" allow="taxi bus" speed="3.65" length="2.33" shape="223.19,66.60 221.99,65.80 221.60,65.00"/>
    </edge>
    <edge id=":cyber4_11" function="internal">
        <lane id=":cyber4_11_0" index="0" allow="taxi bus" speed="8.67" length="11.60" shape="218.33,65.02 216.60,63.60 214.95,59.85 214.40,54.61"/>
    </edge>
    <edge id=":cyber4_12" function="internal">
        <lane id=":cyber4_12_0" index="0" allow="taxi bus" speed="3.65" length="2.33" shape="221.60,65.00 221.99,64.20 223.19,63.41"/>
    </edge>
    <edge id=":cyber4_4" function="internal">
        <lane id=":cyber4_4_0" index="0" allow="taxi bus" speed="6.51" length="9.03" shape="217.60,54.61 217.95,57.06 219.00,58.81 220.75,59.86 223.19,60.21"/>
    </edge>
    <edge id=":cyber4_5" function="internal">
        <lane id=":cyber4_5_0" index="0" allow="taxi bus" speed="8.67" length="16.83" shape="217.60,54.61 217.05,59.85 215.40,63.59 212.65,65.83 208.81,66.59"/>
    </edge>
    <edge id=":cyber4_6" function="internal">
        <lane id=":cyber4_6_0" index="0" disallow="pedestrian" speed="3.65" length="4.67" shape="217.60,54.61 216.80,55.81 216.00,56.21 215.20,55.81 214.40,54.61"/>
    </edge>
    <edge id=":cyber4_7" function="internal">
        <lane id=":cyber4_7_0" index="0" allow="taxi bus" speed="6.51" length="9.05" shape="208.80,60.23 211.25,59.88 213.00,58.83 214.05,57.07 214.40,54.61"/>
    </edge>
    <edge id=":cyber4_8" function="internal">
        <lane id=":cyber4_8_0" index="0" allow="taxi bus" speed="13.89" length="14.39" shape="208.80,60.23 223.19,60.21"/>
        <lane id=":cyber4_8_1" index="1" allow="taxi bus" speed="13.89" length="14.39" shape="208.80,63.43 223.19,63.41"/>
    </edge>
    <edge id=":cyber4_10" function="internal">
        <lane id=":cyber4_10_0" index="0" allow="taxi bus" speed="3.63" length="2.30" shape="208.80,63.43 209.99,64.22 210.38,65.01"/>
    </edge>
    <edge id=":cyber4_13" function="internal">
        <lane id=":cyber4_13_0" index="0" allow="taxi bus" speed="3.63" length="2.30" shape="210.38,65.01 209.99,65.80 208.81,66.59"/>
    </edge>
    <edge id=":cyber5_0" function="internal">
        <lane id=":cyber5_0_0" index="0" allow="taxi bus" speed="13.89" length="14.38" shape="252.18,69.80 237.81,69.79"/>
        <lane id=":cyber5_0_1" index="1" allow="taxi bus" speed="13.89" length="14.38" shape="252.19,66.60 237.81,66.59"/>
    </edge>
    <edge id=":cyber5_2" function="internal">
        <lane id=":cyber5_2_0" index="0" allow="taxi bus" speed="8.67" length="5.23" shape="252.19,66.60 248.34,65.85 247.33,65.02"/>
    </edge>
    <edge id=":cyber5_3" function="internal">
        <lane id=":cyber5_3_0" index="0" allow="taxi bus" speed="3.65" length="2.33" shape="252.19,66.60 250.99,65.80 250.60,65.00"/>
    </edge>
    <edge id=":cyber5_11" function="internal">
        <lane id=":cyber5_11_0" index="0" allow="taxi bus" speed="8.67" length="11.60" shape="247.33,65.02 245.60,63.60 243.95,59.85 243.40,54.61"/>
    </edge>
    <edge id=":cyber5_12" function="internal">
        <lane id=":cyber5_12_0" index="0" allow="taxi bus" speed="3.65" length="2.33" shape="250.60,65.00 250.99,64.20 252.19,63.41"/>
    </edge>
    <edge id=":cyber5_4" function="internal">
        <lane id=":cyber5_4_0" index="0" allow="taxi bus" speed="6.51" length="9.03" shape="246.60,54.61 246.95,57.06 248.00,58.81 249.75,59.86 252.19,60.21"/>
    </edge>
    <edge id=":cyber5_5" function="internal">
        <lane id=":cyber5_5_0" index="0" allow="taxi bus" speed="8.67" length="16.83" shape="246.60,54.61 246.05,59.85 244.40,63.59 241.65,65.83 237.81,66.59"/>
    </edge>
    <edge id=":cyber5_6" function="internal">
        <lane id=":cyber5_6_0" index="0" disallow="pedestrian" speed="3.65" length="4.67" shape="246.60,54.61 245.80,55.81 245.00,56.21 244.20,55.81 243.40,54.61"/>
    </edge>
    <edge id=":cyber5_7" function="internal">
        <lane id=":cyber5_7_0" index="0" allow="taxi bus" speed="6.51" length="9.05" shape="237.80,60.23 240.25,59.88 242.00,58.83 243.05,57.07 243.40,54.61"/>
    </edge>
    <edge id=":cyber5_8" function="internal">
        <lane id=":cyber5_8_0" index="0" allow="taxi bus" speed="13.89" length="14.39" shape="237.80,60.23 252.19,60.21"/>
        <lane id=":cyber5_8_1" index="1" allow="taxi bus" speed="13.89" length="14.39" shape="237.80,63.43 252.19,63.41"/>
    </edge>
    <edge id=":cyber5_10" function="internal">
        <lane id=":cyber5_10_0" index="0" allow="taxi bus" speed="3.63" length="2.30" shape="237.80,63.43 238.99,64.22 239.38,65.01"/>
    </edge>
    <edge id=":cyber5_13" function="internal">
        <lane id=":cyber5_13_0" index="0" allow="taxi bus" speed="3.63" length="2.30" shape="239.38,65.01 238.99,65.80 237.81,66.59"/>
    </edge>
    <edge id=":cyber6_0" function="internal">
        <lane id=":cyber6_0_0" index="0" allow="taxi bus" speed="13.89" length="14.38" shape="281.18,69.80 266.81,69.79"/>
        <lane id=":cyber6_0_1" index="1" allow="taxi bus" speed="13.89" length="14.38" shape="281.19,66.60 266.81,66.59"/>
    </edge>
    <edge id=":cyber6_2" function="internal">
        <lane id=":cyber6_2_0" index="0" allow="taxi bus" speed="8.67" length="5.23" shape="281.19,66.60 277.34,65.85 276.33,65.02"/>
    </edge>
    <edge id=":cyber6_3" function="internal">
        <lane id=":cyber6_3_0" index="0" allow="taxi bus" speed="3.65" length="2.33" shape="281.19,66.60 279.99,65.80 279.60,65.00"/>
    </edge>
    <edge id=":cyber6_11" function="internal">
        <lane id=":cyber6_11_0" index="0" allow="taxi bus" speed="8.67" length="11.60" shape="276.33,65.02 274.60,63.60 272.95,59.85 272.40,54.61"/>
    </edge>
    <edge id=":cyber6_12" function="internal">
        <lane id=":cyber6_12_0" index="0" allow="taxi bus" speed="3.65" length="2.33" shape="279.60,65.00 279.99,64.20 281.19,63.41"/>
    </edge>
    <edge id=":cyber6_4" function="internal">
        <lane id=":cyber6_4_0" index="0" allow="taxi bus" speed="6.51" length="9.03" shape="275.60,54.61 275.95,57.06 277.00,58.81 278.75,59.86 281.19,60.21"/>
    </edge>
    <edge id=":cyber6_5" function="internal">
        <lane id=":cyber6_5_0" index="0" allow="taxi bus" speed="8.67" length="16.83" shape="275.60,54.61 275.05,59.85 273.40,63.59 270.65,65.83 266.81,66.59"/>
    </edge>
    <edge id=":cyber6_6" function="internal">
        <lane id=":cyber6_6_0" index="0" disallow="pedestrian" speed="3.65" length="4.67" shape="275.60,54.61 274.80,55.81 274.00,56.21 273.20,55.81 272.40,54.61"/>
    </edge>
    <edge id=":cyber6_7" function="internal">
        <lane id=":cyber6_7_0" index="0" allow="taxi bus" speed="6.51" length="9.05" shape="266.80,60.23 269.25,59.88 271.00,58.83 272.05,57.07 272.40,54.61"/>
    </edge>
    <edge id=":cyber6_8" function="internal">
        <lane id=":cyber6_8_0" index="0" allow="taxi bus" speed="13.89" length="14.39" shape="266.80,60.23 281.19,60.21"/>
        <lane id=":cyber6_8_1" index="1" allow="taxi bus" speed="13.89" length="14.39" shape="266.80,63.43 281.19,63.41"/>
    </edge>
    <edge id=":cyber6_10" function="internal">
        <lane id=":cyber6_10_0" index="0" allow="taxi bus" speed="3.63" length="2.30" shape="266.80,63.43 267.99,64.22 268.38,65.01"/>
    </edge>
    <edge id=":cyber6_13" function="internal">
        <lane id=":cyber6_13_0" index="0" allow="taxi bus" speed="3.63" length="2.30" shape="268.38,65.01 267.99,65.80 266.81,66.59"/>
    </edge>
    <edge id=":cyber7_0" function="internal">
        <lane id=":cyber7_0_0" index="0" allow="taxi bus" speed="13.89" length="14.39" shape="310.20,69.80 295.81,69.79"/>
        <lane id=":cyber7_0_1" index="1" allow="taxi bus" speed="13.89" length="14.39" shape="310.20,66.60 295.81,66.59"/>
    </edge>
    <edge id=":cyber7_2" function="internal">
        <lane id=":cyber7_2_0" index="0" allow="taxi bus" speed="8.67" length="5.25" shape="310.20,66.60 306.35,65.85 305.32,65.01"/>
    </edge>
    <edge id=":cyber7_3" function="internal">
        <lane id=":cyber7_3_0" index="0" allow="taxi bus" speed="3.65" length="2.34" shape="310.20,66.60 309.00,65.80 308.60,65.00"/>
    </edge>
    <edge id=":cyber7_11" function="internal">
        <lane id=":cyber7_11_0" index="0" allow="taxi bus" speed="8.67" length="11.60" shape="305.32,65.01 303.60,63.60 301.95,59.85 301.40,54.60"/>
    </edge>
    <edge id=":cyber7_12" function="internal">
        <lane id=":cyber7_12_0" index="0" allow="taxi bus" speed="3.65" length="2.34" shape="308.60,65.00 309.00,64.20 310.20,63.40"/>
    </edge>
    <edge id=":cyber7_4" function="internal">
        <lane id=":cyber7_4_0" index="0" allow="taxi bus" speed="6.51" length="9.03" shape="304.60,54.60 304.95,57.05 306.00,58.80 307.75,59.85 310.20,60.20"/>
    </edge>
    <edge id=":cyber7_5" function="internal">
        <lane id=":cyber7_5_0" index="0" allow="taxi bus" speed="8.67" length="16.83" shape="304.60,54.60 304.05,59.84 302.40,63.59 299.65,65.83 295.81,66.59"/>
    </edge>
    <edge id=":cyber7_6" function="internal">
        <lane id=":cyber7_6_0" index="0" disallow="pedestrian" speed="3.65" length="4.67" shape="304.60,54.60 303.80,55.80 303.00,56.20 302.20,55.80 301.40,54.60"/>
    </edge>
    <edge id=":cyber7_7" function="internal">
        <lane id=":cyber7_7_0" index="0" allow="taxi bus" speed="6.51" length="9.06" shape="295.80,60.23 298.25,59.88 300.00,58.83 301.05,57.07 301.40,54.60"/>
    </edge>
    <edge id=":cyber7_8" function="internal">
        <lane id=":cyber7_8_0" index="0" allow="taxi bus" speed="13.89" length="14.40" shape="295.80,60.23 310.20,60.20"/>
        <lane id=":cyber7_8_1" index="1" allow="taxi bus" speed="13.89" length="14.40" shape="295.80,63.43 310.20,63.40"/>
    </edge>
    <edge id=":cyber7_10" function="internal">
        <lane id=":cyber7_10_0" index="0" allow="taxi bus" speed="3.63" length="2.30" shape="295.80,63.43 296.99,64.22 297.38,65.01"/>
    </edge>
    <edge id=":cyber7_13" function="internal">
        <lane id=":cyber7_13_0" index="0" allow="taxi bus" speed="3.63" length="2.30" shape="297.38,65.01 296.99,65.80 295.81,66.59"/>
    </edge>
    <edge id=":cyberend_0" function="internal">
        <lane id=":cyberend_0_0" index="0" allow="taxi bus" speed="3.65" length="4.67" shape="403.00,63.40 404.20,64.20 404.60,65.00 404.20,65.80 403.00,66.60"/>
    </edge>
    <edge id=":main0_0" function="internal">
        <lane id=":main0_0_0" index="0" disallow="pedestrian" speed="6.68" length="0.92" shape="98.40,1.50 98.73,0.64"/>
    </edge>
    <edge id=":main0_1" function="internal">
        <lane id=":main0_1_0" index="0" disallow="pedestrian" speed="3.65" length="0.97" shape="98.40,1.50 98.94,0.69"/>
    </edge>
    <edge id=":main0_5" function="internal">
        <lane id=":main0_5_0" index="0" disallow="pedestrian" speed="6.68" length="8.66" shape="98.73,0.64 98.92,0.14 100.48,-0.82 103.07,-1.41 106.70,-1.60"/>
    </edge>
    <edge id=":main0_6" function="internal">
        <lane id=":main0_6_0" index="0" disallow="pedestrian" speed="3.65" length="3.70" shape="98.94,0.69 99.20,0.30 100.00,-0.10 100.80,0.30 101.60,1.50"/>
    </edge>
    <edge id=":main0_2" function="internal">
        <lane id=":main0_2_0" index="0" speed="13.89" length="13.40" shape="93.30,-4.80 106.70,-4.80"/>
        <lane id=":main0_2_1" index="1" speed="13.89" length="13.40" shape="93.30,-1.60 106.70,-1.60"/>
    </edge>
    <edge id=":main0_4" function="internal">
        <lane id=":main0_4_0" index="0" disallow="pedestrian" speed="6.68" length="9.58" shape="93.30,-1.60 96.93,-1.41 99.53,-0.83 101.08,0.14 101.60,1.50"/>
    </edge>
    <edge id=":main1_0" function="internal">
        <lane id=":main1_0_0" index="0" disallow="pedestrian" speed="6.68" length="0.92" shape="127.40,1.50 127.73,0.64"/>
    </edge>
    <edge id=":main1_1" function="internal">
        <lane id=":main1_1_0" index="0" disallow="pedestrian" speed="3.65" length="0.97" shape="127.40,1.50 127.94,0.69"/>
    </edge>
    <edge id=":main1_5" function="internal">
        <lane id=":main1_5_0" index="0" disallow="pedestrian" speed="6.68" length="8.66" shape="127.73,0.64 127.92,0.14 129.48,-0.82 132.07,-1.41 135.70,-1.60"/>
    </edge>
    <edge id=":main1_6" function="internal">
        <lane id=":main1_6_0" index="0" disallow="pedestrian" speed="3.65" length="3.70" shape="127.94,0.69 128.20,0.30 129.00,-0.10 129.80,0.30 130.60,1.50"/>
    </edge>
    <edge id=":main1_2" function="internal">
        <lane id=":main1_2_0" index="0" speed="13.89" length="13.40" shape="122.30,-4.80 135.70,-4.80"/>
        <lane id=":main1_2_1" index="1" speed="13.89" length="13.40" shape="122.30,-1.60 135.70,-1.60"/>
    </edge>
    <edge id=":main1_4" function="internal">
        <lane id=":main1_4_0" index="0" disallow="pedestrian" speed="6.68" length="9.58" shape="122.30,-1.60 125.93,-1.41 128.53,-0.83 130.08,0.14 130.60,1.50"/>
    </edge>
    <edge id=":main2_0" function="internal">
        <lane id=":main2_0_0" index="0" disallow="pedestrian" speed="6.68" length="0.92" shape="156.40,1.50 156.73,0.64"/>
    </edge>
    <edge id=":main2_1" function="internal">
        <lane id=":main2_1_0" index="0" disallow="pedestrian" speed="3.65" length="0.97" shape="156.40,1.50 156.94,0.69"/>
    </edge>
    <edge id=":main2_5" function="internal">
        <lane id=":main2_5_0" index="0" disallow="pedestrian" speed="6.68" length="8.66" shape="156.73,0.64 156.92,0.14 158.48,-0.82 161.07,-1.41 164.70,-1.60"/>
    </edge>
    <edge id=":main2_6" function="internal">
        <lane id=":main2_6_0" index="0" disallow="pedestrian" speed="3.65" length="3.70" shape="156.94,0.69 157.20,0.30 158.00,-0.10 158.80,0.30 159.60,1.50"/>
    </edge>
    <edge id=":main2_2" function="internal">
        <lane id=":main2_2_0" index="0" speed="13.89" length="13.40" shape="151.30,-4.80 164.70,-4.80"/>
        <lane id=":main2_2_1" index="1" speed="13.89" length="13.40" shape="151.30,-1.60 164.70,-1.60"/>
    </edge>
    <edge id=":main2_4" function="internal">
        <lane id=":main2_4_0" index="0" disallow="pedestrian" speed="6.68" length="9.58" shape="151.30,-1.60 154.93,-1.41 157.53,-0.83 159.08,0.14 159.60,1.50"/>
    </edge>
    <edge id=":main3_0" function="internal">
        <lane id=":main3_0_0" index="0" disallow="pedestrian" speed="6.68" length="0.92" shape="185.40,1.50 185.73,0.64"/>
    </edge>
    <edge id=":main3_1" function="internal">
        <lane id=":main3_1_0" index="0" disallow="pedestrian" speed="3.65" length="0.97" shape="185.40,1.50 185.94,0.69"/>
    </edge>
    <edge id=":main3_5" function="internal">
        <lane id=":main3_5_0" index="0" disallow="pedestrian" speed="6.68" length="8.66" shape="185.73,0.64 185.92,0.14 187.48,-0.82 190.07,-1.41 193.70,-1.60"/>
    </edge>
    <edge id=":main3_6" function="internal">
        <lane id=":main3_6_0" index="0" disallow="pedestrian" speed="3.65" length="3.70" shape="185.94,0.69 186.20,0.30 187.00,-0.10 187.80,0.30 188.60,1.50"/>
    </edge>
    <edge id=":main3_2" function="internal">
        <lane id=":main3_2_0" index="0" speed="13.89" length="13.40" shape="180.30,-4.80 193.70,-4.80"/>
        <lane id=":main3_2_1" index="1" speed="13.89" length="13.40" shape="180.30,-1.60 193.70,-1.60"/>
    </edge>
    <edge id=":main3_4" function="internal">
        <lane id=":main3_4_0" index="0" disallow="pedestrian" speed="6.68" length="9.58" shape="180.30,-1.60 183.93,-1.41 186.53,-0.83 188.08,0.14 188.60,1.50"/>
    </edge>
    <edge id=":main4_0" function="internal">
        <lane id=":main4_0_0" index="0" disallow="pedestrian" speed="6.68" length="0.92" shape="214.40,1.50 214.73,0.64"/>
    </edge>
    <edge id=":main4_1" function="internal">
        <lane id=":main4_1_0" index="0" disallow="pedestrian" speed="3.65" length="0.97" shape="214.40,1.50 214.94,0.69"/>
    </edge>
    <edge id=":main4_5" function="internal">
        <lane id=":main4_5_0" index="0" disallow="pedestrian" speed="6.68" length="8.66" shape="214.73,0.64 214.92,0.14 216.48,-0.82 219.07,-1.41 222.70,-1.60"/>
    </edge>
    <edge id=":main4_6" function="internal">
        <lane id=":main4_6_0" index="0" disallow="pedestrian" speed="3.65" length="3.70" shape="214.94,0.69 215.20,0.30 216.00,-0.10 216.80,0.30 217.60,1.50"/>
    </edge>
    <edge id=":main4_2" function="internal">
        <lane id=":main4_2_0" index="0" speed="13.89" length="13.40" shape="209.30,-4.80 222.70,-4.80"/>
        <lane id=":main4_2_1" index="1" speed="13.89" length="13.40" shape="209.30,-1.60 222.70,-1.60"/>
    </edge>
    <edge id=":main4_4" function="internal">
        <lane id=":main4_4_0" index="0" disallow="pedestrian" speed="6.68" length="9.58" shape="209.30,-1.60 212.93,-1.41 215.53,-0.83 217.08,0.14 217.60,1.50"/>
    </edge>
    <edge id=":main5_0" function="internal">
        <lane id=":main5_0_0" index="0" disallow="pedestrian" speed="6.68" length="0.92" shape="243.40,1.50 243.73,0.64"/>
    </edge>
    <edge id=":main5_1" function="internal">
        <lane id=":main5_1_0" index="0" disallow="pedestrian" speed="3.65" length="0.97" shape="243.40,1.50 243.94,0.69"/>
    </edge>
    <edge id=":main5_5" function="internal">
        <lane id=":main5_5_0" index="0" disallow="pedestrian" speed="6.68" length="8.66" shape="243.73,0.64 243.92,0.14 245.48,-0.82 248.07,-1.41 251.70,-1.60"/>
    </edge>
    <edge id=":main5_6" function="internal">
        <lane id=":main5_6_0" index="0" disallow="pedestrian" speed="3.65" length="3.70" shape="243.94,0.69 244.20,0.30 245.00,-0.10 245.80,0.30 246.60,1.50"/>
    </edge>
    <edge id=":main5_2" function="internal">
        <lane id=":main5_2_0" index="0" speed="13.89" length="13.40" shape="238.30,-4.80 251.70,-4.80"/>