<?xml version="1.0" encoding="UTF-8"?>
<!-- generated on 2020-11-27 17:02:20.989929 by createNetTaxi.py v1_7_0+0000-714814baed
  options: 
-->
<edges xmlns:xsi="http://www.w3.org/2001/XMLSchema-instance" xsi:noNamespaceSchemaLocation="http://sumo.dlr.de/xsd/edges_file.xsd">
<edge id="mainin" from="in" to="main0" numLanes="2"/>
<edge id="main0to1" from="main0" to="main1" numLanes="2"/>
<edge id="main1to2" from="main1" to="main2" numLanes="2"/>
<edge id="main2to3" from="main2" to="main3" numLanes="2"/>
<edge id="main3to4" from="main3" to="main4" numLanes="2"/>
<edge id="main4to5" from="main4" to="main5" numLanes="2"/>
<edge id="main5to6" from="main5" to="main6" numLanes="2"/>
<edge id="main6to7" from="main6" to="main7" numLanes="2"/>
<edge id="mainout" from="main7" to="out" numLanes="2"/>
<edge id="cyberin" from="cyber" to="cyber0" numLanes="3" spreadType="center">
    <lane index="0" allow="pedestrian" width="2.00"/>
    <lane index="1" allow="taxi bus"/>
    <lane index="2" allow="taxi bus"/>
</edge>
<edge id="-cyberin" from="cyber0" to="cyber" numLanes="2" spreadType="center">
    <lane index="0" allow="taxi bus"/>
    <lane index="1" allow="taxi bus"/>
</edge>
<edge id="cyber0to1" from="cyber0" to="cyber1" numLanes="3" spreadType="center">
    <lane index="0" allow="pedestrian" width="2.00"/>
    <lane index="1" allow="taxi bus"/>
    <lane index="2" allow="taxi bus"/>
</edge>
<edge id="-cyber0to1" from="cyber1" to="cyber0" numLanes="2" spreadType="center">
    <lane index="0" allow="taxi bus"/>
    <lane index="1" allow="taxi bus"/>
</edge>
<edge id="cyber1to2" from="cyber1" to="cyber2" numLanes="3" spreadType="center">
    <lane index="0" allow="pedestrian" width="2.00"/>
    <lane index="1" allow="taxi bus"/>
    <lane index="2" allow="taxi bus"/>
</edge>
<edge id="-cyber1to2" from="cyber2" to="cyber1" numLanes="2" spreadType="center">
    <lane index="0" allow="taxi bus"/>
    <lane index="1" allow="taxi bus"/>
</edge>
<edge id="cyber2to3" from="cyber2" to="cyber3" numLanes="3" spreadType="center">
    <lane index="0" allow="pedestrian" width="2.00"/>
    <lane index="1" allow="taxi bus"/>
    <lane index="2" allow="taxi bus"/>
</edge>
<edge id="-cyber2to3" from="cyber3" to="cyber2" numLanes="2" spreadType="center">
    <lane index="0" allow="taxi bus"/>
    <lane index="1" allow="taxi bus"/>
</edge>
<edge id="cyber3to4" from="cyber3" to="cyber4" numLanes="3" spreadType="center">
    <lane index="0" allow="pedestrian" width="2.00"/>
    <lane index="1" allow="taxi bus"/>
    <lane index="2" allow="taxi bus"/>
</edge>
<edge id="-cyber3to4" from="cyber4" to="cyber3" numLanes="2" spreadType="center">
    <lane index="0" allow="taxi bus"/>
    <lane index="1" allow="taxi bus"/>
</edge>
<edge id="cyber4to5" from="cyber4" to="cyber5" numLanes="3" spreadType="center">
    <lane index="0" allow="pedestrian" width="2.00"/>
    <lane index="1" allow="taxi bus"/>
    <lane index="2" allow="taxi bus"/>
</edge>
<edge id="-cyber4to5" from="cyber5" to="cyber4" numLanes="2" spreadType="center">
    <lane index="0" allow="taxi bus"/>
    <lane index="1" allow="taxi bus"/>
</edge>
<edge id="cyber5to6" from="cyber5" to="cyber6" numLanes="3" spreadType="center">
    <lane index="0" allow="pedestrian" width="2.00"/>
    <lane index="1" allow="taxi bus"/>
    <lane index="2" allow="taxi bus"/>
</edge>
<edge id="-cyber5to6" from="cyber6" to="cyber5" numLanes="2" spreadType="center">
    <lane index="0" allow="taxi bus"/>
    <lane index="1" allow="taxi bus"/>
</edge>
<edge id="cyber6to7" from="cyber6" to="cyber7" numLanes="3" spreadType="center">
    <lane index="0" allow="pedestrian" width="2.00"/>
    <lane index="1" allow="taxi bus"/>
    <lane index="2" allow="taxi bus"/>
</edge>
<edge id="-cyber6to7" from="cyber7" to="cyber6" numLanes="2" spreadType="center">
    <lane index="0" allow="taxi bus"/>
    <lane index="1" allow="taxi bus"/>
</edge>
<edge id="cyberout" from="cyber7" to="cyberend" numLanes="3" spreadType="center">
    <lane index="0" allow="pedestrian" width="2.00"/>
    <lane index="1" allow="taxi bus"/>
    <lane index="2" allow="taxi bus"/>
</edge>
<edge id="-cyberout" from="cyberend" to="cyber7" numLanes="2" spreadType="center">
    <lane index="0" allow="taxi bus"/>
    <lane index="1" allow="taxi bus"/>
</edge>
<edge id="road0" from="main0" to="cyber0" numLanes="2">
    <lane index="0" allow="pedestrian" width="2.00"/>
    <lane index="1" disallow="pedestrian"/>
</edge>
<edge id="-road0" from="cyber0" to="main0" numLanes="2">
    <lane index="0" allow="pedestrian" width="2.00"/>
    <lane index="1" disallow="pedestrian"/>
</edge>
<edge id="road1" from="main1" to="cyber1" numLanes="2">
    <lane index="0" allow="pedestrian" width="2.00"/>
    <lane index="1" disallow="pedestrian"/>
</edge>
<edge id="-road1" from="cyber1" to="main1" numLanes="2">
    <lane index="0" allow="pedestrian" width="2.00"/>
    <lane index="1" disallow="pedestrian"/>
</edge>
<edge id="road2" from="main2" to="cyber2" numLanes="2">
    <lane index="0" allow="pedestrian" width="2.00"/>
    <lane index="1" disallow="pedestrian"/>
</edge>
<edge id="-road2" from="cyber2" to="main2" numLanes="2">
    <lane index="0" allow="pedestrian" width="2.00"/>
    <lane index="1" disallow="pedestrian"/>
</edge>
<edge id="road3" from="main3" to="cyber3" numLanes="2">
    <lane index="0" allow="pedestrian" width="2.00"/>
    <lane index="1" disallow="pedestrian"/>
</edge>
<edge id="-road3" from="cyber3" to="main3" numLanes="2">
    <lane index="0" allow="pedestrian" width="2.00"/>
    <lane index="1" disallow="pedestrian"/>
</edge>
<edge id="road4" from="main4" to="cyber4" numLanes="2">
    <lane index="0" allow="pedestrian" width="2.00"/>
    <lane index="1" disallow="pedestrian"/>
</edge>
<edge id="-road4" from="cyber4" to="main4" numLanes="2">
    <lane index="0" allow="pedestrian" width="2.00"/>
    <lane index="1" disallow="pedestrian"/>
</edge>
<edge id="road5" from="main5" to="cyber5" numLanes="2">
    <lane index="0" allow="pedestrian" width="2.00"/>
    <lane index="1" disallow="pedestrian"/>
</edge>
<edge id="-road5" from="cyber5" to="main5" numLanes="2">
    <lane index="0" allow="pedestrian" width="2.00"/>
    <lane index="1" disallow="pedestrian"/>
</edge>
<edge id="road6" from="main6" to="cyber6" numLanes="2">
    <lane index="0" allow="pedestrian" width="2.00"/>
    <lane index="1" disallow="pedestrian"/>
</edge>
<edge id="-road6" from="cyber6" to="main6" numLanes="2">
    <lane index="0" allow="pedestrian" width="2.00"/>
    <lane index="1" disallow="pedestrian"/>
</edge>
<edge id="road7" from="main7" to="cyber7" numLanes="2">
    <lane index="0" allow="pedestrian" width="2.00"/>
    <lane index="1" disallow="pedestrian"/>
</edge>
<edge id="-road7" from="cyber7" to="main7" numLanes="2">
    <lane index="0" allow="pedestrian" width="2.00"/>
    <lane index="1" disallow="pedestrian"/>
</edge>
</edges>
