<?xml version="1.0" encoding="UTF-8"?>
<!-- generated on 2020-10-02 17:24:36.553750 by randomTrips.py v1_7_0+0000-714814baed
  options: -n madridCenter.net.xml -r madridCenter.rou.xml -e 50 -l
-->
<routes xmlns:xsi="http://www.w3.org/2001/XMLSchema-instance" xsi:noNamespaceSchemaLocation="http://sumo.dlr.de/xsd/routes_file.xsd">
    <trip id="0" depart="0.00" from="4519467#0" to="-31092431#1"/>
    <trip id="1" depart="1.00" from="31053324#1" to="27452818#2"/>
    <trip id="2" depart="2.00" from="633727949" to="49016406#2"/>
    <trip id="3" depart="3.00" from="7971559#1" to="-519453589"/>
    <trip id="4" depart="4.00" from="41602114#0" to="-32597088#1"/>
    <trip id="5" depart="5.00" from="178940796" to="4328790#8"/>
    <trip id="6" depart="6.00" from="-31053371#3" to="174841899#1"/>
    <trip id="7" depart="7.00" from="48345480#1" to="43759793#3"/>
    <trip id="8" depart="8.00" from="178940796" to="4487679#3"/>
    <trip id="9" depart="9.00" from="7642979#1" to="-155551743#3"/>
    <trip id="10" depart="10.00" from="7642977" to="556954611#0"/>
    <trip id="11" depart="11.00" from="331165013#0" to="155872373#0"/>
    <trip id="12" depart="12.00" from="7973710#0" to="334382542#1"/>
    <trip id="13" depart="13.00" from="-5856621#1" to="-651543115#1"/>
    <trip id="14" depart="14.00" from="78589192#0" to="4487807#1"/>
    <trip id="15" depart="15.00" from="7642979#1" to="604998641#4"/>
    <trip id="16" depart="16.00" from="43410313#5" to="7988359#2"/>
    <trip id="17" depart="17.00" from="355153823#0" to="44288721#4"/>
    <trip id="18" depart="18.00" from="7726294#1" to="4518851#1"/>
    <trip id="19" depart="19.00" from="7971489#1" to="4487679#3"/>
    <trip id="20" depart="20.00" from="5856625#0" to="-398751337#1"/>
    <trip id="21" depart="21.00" from="26673370#1" to="31234179#5"/>
    <trip id="22" depart="22.00" from="-44885764#1" to="29231454"/>
    <trip id="23" depart="23.00" from="-651543115#2" to="31053374#1"/>
    <trip id="24" depart="24.00" from="4519465#0" to="345305584#1"/>
    <trip id="25" depart="25.00" from="34095418#2" to="243991596#1"/>
    <trip id="26" depart="26.00" from="31021534#2" to="7972554#1"/>
    <trip id="27" depart="27.00" from="48345480#0" to="44885764#1"/>
    <trip id="28" depart="28.00" from="155551743#4" to="604998641#4"/>
    <trip id="29" depart="29.00" from="151362347#0" to="355939669#5"/>
    <trip id="30" depart="30.00" from="82567673#1" to="4519467#0"/>
    <trip id="31" depart="31.00" from="44288721#2" to="4950796"/>
    <trip id="32" depart="32.00" from="7732072#1" to="7642938"/>
    <trip id="33" depart="33.00" from="269291945#1" to="-331165013#0"/>
    <trip id="34" depart="34.00" from="31261528#4" to="31053340#1"/>
    <trip id="35" depart="35.00" from="174855529" to="7972664#2"/>
    <trip id="36" depart="36.00" from="7971495#1" to="31309326#2"/>
    <trip id="37" depart="37.00" from="48409226#0" to="398751011"/>
    <trip id="38" depart="38.00" from="7972312#4" to="4328609"/>
    <trip id="39" depart="39.00" from="30676403#2" to="30675995"/>
    <trip id="40" depart="40.00" from="443396463" to="31053324#1"/>
    <trip id="41" depart="41.00" from="4487670#3" to="7971929"/>
    <trip id="42" depart="42.00" from="373779287#3" to="269291945#1"/>
    <trip id="43" depart="43.00" from="90210746#0" to="4328798#0"/>
    <trip id="44" depart="44.00" from="-490391710" to="-41699453#1"/>
    <trip id="45" depart="45.00" from="-7643016#1" to="4519453"/>
    <trip id="46" depart="46.00" from="7642963#1" to="41699518#0"/>
    <trip id="47" depart="47.00" from="-424852627#1" to="363611231"/>
    <trip id="48" depart="48.00" from="90210746#0" to="43410310"/>
    <trip id="49" depart="49.00" from="7988358" to="7971492"/>
</routes>
