<additional>

	<tazs>
		<taz id="1" edges="275128981">
		</taz>
		<taz id="2" edges="198595554#1">
		</taz>
		<taz id="3" edges="46140175#1">
		</taz>
	</tazs>
</additional>