<?xml version="1.0" encoding="UTF-8"?>

<!-- generated on 10/13/20 17:38:24 by Eclipse SUMO polyconvert Version 1.7.0
<configuration xmlns:xsi="http://www.w3.org/2001/XMLSchema-instance" xsi:noNamespaceSchemaLocation="http://sumo.dlr.de/xsd/polyconvertConfiguration.xsd">

    <input>
        <net-file value="moratalaz.net.xml"/>
        <osm-files value="moratalaz.osm"/>
        <type-file value="osmPolyconvert.typ.xml"/>
    </input>

    <output>
        <output-file value="moratalaz.poly.xml"/>
    </output>

    <processing>
        <poi-layer-offset value="5"/>
    </processing>

</configuration>
-->

<additional xmlns:xsi="http://www.w3.org/2001/XMLSchema-instance" xsi:noNamespaceSchemaLocation="http://sumo.dlr.de/xsd/additional_file.xsd">
    <location netOffset="-443121.07,-4471757.99" convBoundary="-0.00,0.00,7343.32,3020.98" origBoundary="-3.670412,40.394951,-3.583692,40.421774" projParameter="+proj=utm +zone=30 +ellps=WGS84 +datum=WGS84 +units=m +no_defs"/>

    <poly id="105079956" type="leisure" color="207,245,201" fill="1" layer="-2.00" shape="1342.861804,2442.460374 1249.129436,2415.503821 1221.845792,2510.682646 1236.658416,2513.969462 1249.375179,2514.940743 1264.318508,2514.119439 1275.567317,2512.781638 1287.382086,2509.963284 1297.133806,2505.817078 1305.068254,2501.451243 1313.203138,2494.364296 1319.975592,2486.610322 1328.284511,2475.525904 1333.373163,2466.097136 1339.326329,2453.109790 1342.861804,2442.460374"/>
    <poly id="105079956#1" type="sport" color="79,230,125" fill="1" layer="-2.00" shape="1342.861804,2442.460374 1249.129436,2415.503821 1221.845792,2510.682646 1236.658416,2513.969462 1249.375179,2514.940743 1264.318508,2514.119439 1275.567317,2512.781638 1287.382086,2509.963284 1297.133806,2505.817078 1305.068254,2501.451243 1313.203138,2494.364296 1319.975592,2486.610322 1328.284511,2475.525904 1333.373163,2466.097136 1339.326329,2453.109790 1342.861804,2442.460374"/>
    <poly id="105079977" type="leisure" color="207,245,201" fill="1" layer="-2.00" shape="1492.043543,2453.955896 1489.638709,2433.926078 1479.661360,2435.120952 1482.057737,2455.150830 1492.043543,2453.955896"/>
    <poly id="105079977#1" type="sport" color="79,230,125" fill="1" layer="-2.00" shape="1492.043543,2453.955896 1489.638709,2433.926078 1479.661360,2435.120952 1482.057737,2455.150830 1492.043543,2453.955896"/>
    <poly id="105080010" type="leisure" color="207,245,201" fill="1" layer="-2.00" shape="1568.888548,2234.519198 1532.336393,2271.265310 1557.515481,2296.122302 1594.067634,2259.376311 1568.888548,2234.519198"/>
    <poly id="105080010#1" type="sport" color="79,230,125" fill="1" layer="-2.00" shape="1568.888548,2234.519198 1532.336393,2271.265310 1557.515481,2296.122302 1594.067634,2259.376311 1568.888548,2234.519198"/>
    <poly id="145235586" type="landuse" color="194,194,130" fill="1" layer="-3.00" shape="813.862277,2056.212993 923.482125,2002.133685 917.583070,1940.469740 914.259286,1940.783161 912.575220,1923.190255 915.292142,1916.598451 912.825578,1890.796979 911.610751,1878.095915 901.805861,1878.613125 879.798072,1874.403831 857.101926,1870.055436 747.763677,1921.147520 813.862277,2056.212993"/>
    <poly id="145438620" type="amenity" color="237,199,199" fill="1" layer="-1.00" shape="1717.897982,1653.463107 1790.706340,1628.651055 1788.583025,1600.660033 1786.499402,1580.383585 1780.452424,1578.496520 1775.306343,1564.103651 1772.758334,1561.469349 1729.164162,1575.843079 1721.322541,1561.847488 1717.447372,1563.363461 1708.476269,1566.548702 1675.474520,1578.957738 1693.432449,1631.231147 1696.345771,1639.690511 1697.328810,1641.825678 1712.250642,1637.841808 1717.897982,1653.463107"/>
    <poly id="146186641" type="building" color="255,230,230" fill="1" layer="-1.00" shape="1174.440724,1663.996356 1164.334354,1642.247774 1184.316750,1633.030200 1194.423156,1654.789908 1174.440724,1663.996356"/>
    <poly id="146188555" type="building" color="255,230,230" fill="1" layer="-1.00" shape="800.560589,1670.801350 794.959324,1655.924100 808.709706,1650.803827 810.917332,1656.670612 814.522006,1655.322697 817.907049,1664.322137 800.560589,1670.801350"/>
    <poly id="146188572" type="water" color="181,209,209" fill="1" layer="-4.00" shape="847.802024,1666.751739 854.271943,1657.079224 874.064607,1670.229837 867.586190,1679.902398 847.802024,1666.751739"/>
    <poly id="146189898" type="building" color="255,230,230" fill="1" layer="-1.00" shape="1198.310571,1771.505424 1208.545454,1771.740249 1208.834479,1759.238895 1220.827608,1752.855862 1215.957433,1743.756267 1204.860133,1749.655332 1202.128044,1749.675617 1192.799900,1743.572981 1187.354379,1751.838923 1198.592495,1759.192831 1198.310571,1771.505424"/>
    <poly id="146189910" type="building" color="255,230,230" fill="1" layer="-1.00" shape="1126.607876,1769.984582 1126.975887,1754.429985 1172.413675,1755.502071 1172.045487,1771.045565 1126.607876,1769.984582"/>
    <poly id="146190728" type="building" color="255,230,230" fill="1" layer="-1.00" shape="1253.032897,1752.239477 1269.478231,1751.229460 1267.635389,1721.271672 1251.189907,1722.270592 1253.032897,1752.239477"/>
    <poly id="146190733" type="building" color="255,230,230" fill="1" layer="-1.00" shape="1313.735155,1772.725049 1312.496444,1760.146218 1300.248327,1755.030835 1304.300671,1745.387735 1316.429604,1750.448505 1327.311759,1742.986024 1333.358629,1751.732857 1322.771966,1758.993331 1324.028698,1771.716337 1313.735155,1772.725049"/>
    <poly id="146191725" type="building" color="255,230,230" fill="1" layer="-1.00" shape="1330.256720,1977.873823 1339.820940,1973.518166 1337.791484,1968.726664 1338.232776,1967.591141 1341.198881,1968.246304 1344.388231,1968.111676 1347.105836,1967.292311 1349.149879,1966.033912 1350.839317,1963.867896 1352.298852,1961.592578 1352.965877,1958.856905 1354.782466,1958.965559 1357.892506,1963.016429 1367.008849,1956.610524 1339.008785,1917.710664 1330.171585,1924.003528 1346.632085,1946.859724 1343.762113,1945.437909 1340.918975,1945.347961 1337.961247,1945.824991 1335.576998,1946.974907 1333.655929,1948.798526 1331.734943,1950.633245 1331.071312,1952.680660 1330.749528,1955.058560 1319.526452,1930.209895 1309.197839,1934.471336 1330.256720,1977.873823"/>
    <poly id="146191726" type="building" color="255,230,230" fill="1" layer="-1.00" shape="1244.106530,1931.801450 1245.398552,1895.515291 1225.063066,1894.800352 1225.441734,1884.085518 1249.715417,1884.948850 1249.644653,1886.847567 1254.745540,1887.031738 1254.556885,1892.483503 1257.383157,1892.584644 1255.963222,1932.224113 1244.106530,1931.801450"/>
    <poly id="146191727" type="building" color="255,230,230" fill="1" layer="-1.00" shape="1231.393555,1921.183762 1231.009610,1931.188201 1207.881404,1930.305327 1207.967313,1928.162284 1201.746081,1927.930962 1201.922919,1923.178616 1200.081112,1923.103488 1201.601581,1883.330051 1211.896858,1883.719837 1210.489013,1920.384282 1231.393555,1921.183762"/>
    <poly id="146191728" type="building" color="255,230,230" fill="1" layer="-1.00" shape="1149.096814,1963.355402 1169.164899,1963.505990 1169.197750,1951.938978 1149.206077,1951.798921 1149.096814,1963.355402"/>
    <poly id="146191729" type="building" color="255,230,230" fill="1" layer="-1.00" shape="1144.646817,1928.588266 1144.824763,1915.998925 1163.460569,1916.359957 1163.154828,1928.883643 1144.646817,1928.588266"/>
    <poly id="146191730" type="building" color="255,230,230" fill="1" layer="-1.00" shape="1261.068416,1835.755839 1282.642031,1866.111242 1280.396728,1867.693066 1283.655117,1872.286732 1286.381491,1870.357226 1298.754531,1887.771057 1308.647305,1880.793201 1271.442382,1828.441350 1261.068416,1835.755839"/>
    <poly id="146191731" type="building" color="255,230,230" fill="1" layer="-1.00" shape="1132.627411,1820.680414 1132.797986,1805.959825 1167.140206,1806.337330 1166.978049,1821.057854 1132.627411,1820.680414"/>
    <poly id="146191732" type="building" color="255,230,230" fill="1" layer="-1.00" shape="1146.678028,1894.783109 1146.869827,1882.915202 1182.918747,1883.502099 1182.726891,1895.370005 1146.678028,1894.783109"/>
    <poly id="146191733" type="building" color="255,230,230" fill="1" layer="-1.00" shape="1291.333739,1948.923445 1287.203225,1942.282642 1297.558442,1935.889668 1301.688949,1942.530478 1291.333739,1948.923445"/>
    <poly id="146191734" type="building" color="255,230,230" fill="1" layer="-1.00" shape="1247.234414,1990.855335 1276.717218,1976.805374 1288.059236,2001.664197 1259.286158,2015.298131 1247.234414,1990.855335"/>
    <poly id="146191736" type="amenity" color="237,199,199" fill="1" layer="-1.00" shape="1073.892445,1885.555960 1074.157456,1866.438847 1110.927081,1866.942332 1110.661976,1886.059443 1073.892445,1885.555960"/>
    <poly id="146191736#1" type="building" color="255,230,230" fill="1" layer="-1.00" shape="1073.892445,1885.555960 1074.157456,1866.438847 1110.927081,1866.942332 1110.661976,1886.059443 1073.892445,1885.555960"/>
    <poly id="146191737" type="building" color="255,230,230" fill="1" layer="-1.00" shape="1136.225742,1860.715528 1136.466551,1849.735299 1172.788706,1850.531029 1172.547844,1861.511256 1136.225742,1860.715528"/>
    <poly id="146227749" type="leisure" color="207,245,201" fill="1" layer="-2.00" shape="949.573931,1980.603760 948.758284,1970.219728 972.869624,1968.685651 973.626095,1979.103428 949.573931,1980.603760"/>
    <poly id="146227749#1" type="sport" color="79,230,125" fill="1" layer="-2.00" shape="949.573931,1980.603760 948.758284,1970.219728 972.869624,1968.685651 973.626095,1979.103428 949.573931,1980.603760"/>
    <poly id="146227750" type="building" color="255,230,230" fill="1" layer="-1.00" shape="956.980285,2002.083589 955.604668,1984.876893 1023.444246,1979.498099 1024.014966,1986.631501 1032.427107,1985.969413 1033.223436,1996.053882 956.980285,2002.083589"/>
    <poly id="146227751" type="leisure" color="207,245,201" fill="1" layer="-2.00" shape="1006.679493,2264.363270 1026.236974,2255.303807 1043.283231,2291.841973 1023.725826,2300.901392 1006.679493,2264.363270"/>
    <poly id="146227751#1" type="sport" color="79,230,125" fill="1" layer="-2.00" shape="1006.679493,2264.363270 1026.236974,2255.303807 1043.283231,2291.841973 1023.725826,2300.901392 1006.679493,2264.363270"/>
    <poly id="146227756" type="building" color="255,230,230" fill="1" layer="-1.00" shape="930.621785,1859.360624 929.732879,1847.123350 971.244920,1844.094096 971.120302,1842.174630 986.021041,1841.153303 986.033699,1842.851593 990.008779,1842.255837 993.981294,1841.315985 997.497424,1839.480391 1000.439128,1836.849841 1002.696141,1834.568511 1004.046125,1832.404945 1005.276497,1830.131266 1005.944319,1827.517661 1006.491701,1824.682943 1006.345044,1820.943151 1018.744504,1820.162539 1019.004019,1824.245607 1018.693325,1828.099811 1017.585074,1831.959957 1015.909261,1835.946437 1013.774370,1839.814232 1010.961537,1843.798083 1008.360954,1846.659199 1004.632661,1849.628624 1000.206149,1852.270238 995.896736,1853.545614 991.347272,1854.489765 986.801164,1854.745660 986.925032,1856.565227 972.602107,1857.693250 972.360360,1855.996668 930.621785,1859.360624"/>
    <poly id="146227759" type="building" color="255,230,230" fill="1" layer="-1.00" shape="969.071773,2045.385477 992.739617,2043.577253 993.190220,2049.390583 1037.625718,2045.995771 1035.503306,2018.493314 990.745402,2021.912740 989.862647,2010.485752 984.520170,2010.891893 984.341755,2008.584309 966.338522,2009.961796 969.071773,2045.385477"/>
    <poly id="146227763" type="leisure" color="207,245,201" fill="1" layer="-2.00" shape="992.647459,1977.707271 992.203986,1968.297310 1014.961291,1967.239684 1015.404654,1976.638546 992.647459,1977.707271"/>
    <poly id="146227763#1" type="sport" color="79,230,125" fill="1" layer="-2.00" shape="992.647459,1977.707271 992.203986,1968.297310 1014.961291,1967.239684 1015.404654,1976.638546 992.647459,1977.707271"/>
    <poly id="146227767" type="building" color="255,230,230" fill="1" layer="-1.00" shape="1178.679090,2359.025560 1197.551044,2363.913928 1196.154509,2370.085106 1211.199869,2373.825270 1220.704272,2336.345849 1206.563260,2332.143827 1204.767942,2334.887894 1162.115751,2322.283699 1159.337148,2335.425201 1148.861089,2333.460563 1139.277331,2372.772262 1145.898133,2375.442678 1135.195718,2420.623795 1159.933047,2427.022535 1156.635346,2442.232602 1182.845411,2448.165348 1201.113124,2380.860217 1175.010401,2373.416931 1178.679090,2359.025560"/>
    <poly id="146231631" type="building" color="255,230,230" fill="1" layer="-1.00" shape="1265.783693,2136.301378 1258.884592,2121.300212 1229.144323,2134.874844 1222.443500,2120.305161 1248.200867,2108.536141 1232.841639,2075.148666 1246.312371,2068.998909 1243.682135,2063.290543 1260.890486,2055.425798 1267.565424,2069.940203 1251.574732,2077.240873 1263.130858,2102.375586 1258.928134,2104.293853 1262.463856,2111.971405 1282.919403,2102.639552 1289.257855,2116.412734 1269.115271,2125.609043 1272.607811,2133.187014 1265.783693,2136.301378"/>
    <poly id="146231632" type="building" color="255,230,230" fill="1" layer="-1.00" shape="1045.651893,2454.958101 1054.357215,2447.022980 1036.137889,2427.222065 1027.323677,2435.346727 1045.651893,2454.958101"/>
    <poly id="146231636" type="leisure" color="207,245,201" fill="1" layer="-2.00" shape="1477.292392,2415.357286 1487.269849,2414.173508 1489.638709,2433.926078 1479.661360,2435.120952 1477.292392,2415.357286"/>
    <poly id="146231636#1" type="sport" color="79,230,125" fill="1" layer="-2.00" shape="1477.292392,2415.357286 1487.269849,2414.173508 1489.638709,2433.926078 1479.661360,2435.120952 1477.292392,2415.357286"/>
    <poly id="146231642" type="leisure" color="207,245,201" fill="1" layer="-2.00" shape="1170.729098,2041.564509 1192.529327,2036.196417 1182.206209,1994.335229 1159.942672,1999.029658 1170.729098,2041.564509"/>
    <poly id="146231642#1" type="sport" color="79,230,125" fill="1" layer="-2.00" shape="1170.729098,2041.564509 1192.529327,2036.196417 1182.206209,1994.335229 1159.942672,1999.029658 1170.729098,2041.564509"/>
    <poly id="146231646" type="building" color="255,230,230" fill="1" layer="-1.00" shape="1477.729748,2326.427592 1477.387585,2323.754889 1471.335273,2324.521150 1469.705807,2311.834170 1496.644444,2308.404873 1498.228903,2320.748074 1491.718856,2321.573202 1492.105976,2324.589690 1477.729748,2326.427592"/>
    <poly id="146231648" type="building" color="255,230,230" fill="1" layer="-1.00" shape="1384.940739,2360.559764 1384.076256,2352.662573 1395.877200,2351.376374 1395.094177,2344.166814 1402.122217,2343.404372 1402.841246,2349.992776 1418.770900,2348.265343 1419.707818,2356.783632 1384.940739,2360.559764"/>
    <poly id="146231650" type="leisure" color="207,245,201" fill="1" layer="-2.00" shape="1497.374405,2412.966604 1499.734836,2432.730339 1489.638709,2433.926078 1487.269849,2414.173508 1497.374405,2412.966604"/>
    <poly id="146231650#1" type="sport" color="79,230,125" fill="1" layer="-2.00" shape="1497.374405,2412.966604 1499.734836,2432.730339 1489.638709,2433.926078 1487.269849,2414.173508 1497.374405,2412.966604"/>
    <poly id="146231652" type="building" color="255,230,230" fill="1" layer="-1.00" shape="1329.796825,2413.973252 1331.404149,2408.755185 1340.766742,2411.616368 1339.167813,2416.823269 1329.796825,2413.973252"/>
    <poly id="146231659" type="leisure" color="207,245,201" fill="1" layer="-2.00" shape="1211.100785,2023.359491 1228.592563,2019.377760 1221.776294,1990.411529 1203.898534,1994.984469 1211.100785,2023.359491"/>
    <poly id="146231659#1" type="sport" color="79,230,125" fill="1" layer="-2.00" shape="1211.100785,2023.359491 1228.592563,2019.377760 1221.776294,1990.411529 1203.898534,1994.984469 1211.100785,2023.359491"/>
    <poly id="146231660" type="leisure" color="207,245,201" fill="1" layer="-2.00" shape="1502.139644,2452.760160 1492.043543,2453.955896 1489.638709,2433.926078 1499.734836,2432.730339 1502.139644,2452.760160"/>
    <poly id="146231660#1" type="sport" color="79,230,125" fill="1" layer="-2.00" shape="1502.139644,2452.760160 1492.043543,2453.955896 1489.638709,2433.926078 1499.734836,2432.730339 1502.139644,2452.760160"/>
    <poly id="146231665" type="building" color="255,230,230" fill="1" layer="-1.00" shape="1322.892295,2378.724667 1317.663565,2371.548057 1320.819817,2369.260156 1314.956760,2361.211306 1344.376368,2339.957793 1325.158494,2313.569858 1340.129955,2302.746912 1368.605296,2341.854166 1328.822150,2370.599529 1330.648002,2373.116926 1322.892295,2378.724667"/>
    <poly id="146351296" type="building" color="255,230,230" fill="1" layer="-1.00" shape="1311.570836,1837.912351 1305.603001,1829.520167 1316.449692,1821.869221 1315.553847,1808.610715 1325.934491,1807.912174 1326.792596,1820.660335 1339.147666,1826.485403 1334.569111,1836.110181 1322.316198,1830.328767 1311.570836,1837.912351"/>
    <poly id="146351298" type="building" color="255,230,230" fill="1" layer="-1.00" shape="1497.182555,1803.437403 1490.866860,1785.834202 1513.175088,1777.887985 1519.490737,1795.491205 1497.182555,1803.437403"/>
    <poly id="146351307" type="building" color="255,230,230" fill="1" layer="-1.00" shape="1430.822150,1870.253509 1424.298615,1852.096870 1442.222777,1845.703633 1448.746356,1863.871387 1430.822150,1870.253509"/>
    <poly id="146351310" type="leisure" color="207,245,201" fill="1" layer="-2.00" shape="1601.658246,1934.396541 1608.782607,1913.264112 1651.223906,1928.136929 1643.872077,1949.504103 1601.658246,1934.396541"/>
    <poly id="146351310#1" type="sport" color="79,230,125" fill="1" layer="-2.00" shape="1601.658246,1934.396541 1608.782607,1913.264112 1651.223906,1928.136929 1643.872077,1949.504103 1601.658246,1934.396541"/>
    <poly id="146351314" type="building" color="255,230,230" fill="1" layer="-1.00" shape="1371.497847,1870.703520 1364.740008,1850.717076 1383.665724,1844.371787 1390.423599,1864.369347 1371.497847,1870.703520"/>
    <poly id="146351315" type="building" color="255,230,230" fill="1" layer="-1.00" shape="1491.631643,1918.091428 1512.582804,1911.420686 1506.931322,1894.123381 1485.940482,1901.171849 1491.631643,1918.091428"/>
    <poly id="146351318" type="building" color="255,230,230" fill="1" layer="-1.00" shape="1396.602689,1827.936063 1414.213365,1821.600583 1407.647820,1803.510872 1390.045591,1809.846305 1396.602689,1827.936063"/>
    <poly id="146351319" type="building" color="255,230,230" fill="1" layer="-1.00" shape="1464.762256,1813.967111 1482.544845,1807.919136 1474.910331,1786.385000 1457.316081,1792.664711 1464.762256,1813.967111"/>
    <poly id="146366117" type="building" color="255,230,230" fill="1" layer="-1.00" shape="1694.058738,1663.295959 1691.232231,1655.102370 1711.494904,1648.148655 1714.321391,1656.342252 1694.058738,1663.295959"/>
    <poly id="146366124" type="amenity" color="237,199,199" fill="1" layer="-1.00" shape="1456.664965,1698.825609 1482.702965,1690.341117 1473.455590,1662.991120 1452.879228,1669.947801 1456.664965,1698.825609"/>
    <poly id="146366124#1" type="building" color="255,230,230" fill="1" layer="-1.00" shape="1456.664965,1698.825609 1482.702965,1690.341117 1473.455590,1662.991120 1452.879228,1669.947801 1456.664965,1698.825609"/>
    <poly id="146366127" type="building" color="255,230,230" fill="1" layer="-1.00" shape="1527.333775,1728.041974 1548.449136,1720.548693 1540.062299,1697.088555 1518.946879,1704.581858 1527.333775,1728.041974"/>
    <poly id="146366135" type="building" color="255,230,230" fill="1" layer="-1.00" shape="1626.935970,1690.387079 1624.360857,1682.924296 1644.555762,1676.004199 1647.130857,1683.466988 1626.935970,1690.387079"/>
    <poly id="235552575" type="building" color="255,230,230" fill="1" layer="-1.00" shape="1194.838720,1870.725650 1207.484911,1871.186777 1208.467153,1844.626987 1209.673943,1811.738222 1209.886045,1806.019869 1197.171867,1805.559241 1196.366742,1827.399986 1193.497938,1827.288083 1193.279426,1833.283998 1196.216105,1833.395397 1194.838720,1870.725650"/>
    <poly id="237971996" type="building" color="255,230,230" fill="1" layer="-1.00" shape="1367.165583,1758.864373 1383.414122,1757.634053 1380.564267,1719.957724 1364.391763,1721.154184 1367.165583,1758.864373"/>
    <poly id="251701837" type="parking" color="184,184,179" fill="1" layer="-1.00" shape="1160.404480,2488.171985 1174.079327,2498.182970 1184.753946,2465.234922 1181.442809,2463.794247 1171.376152,2471.228709 1173.691166,2476.772885 1163.274219,2483.876944 1159.133505,2478.124329 1150.736843,2480.795369 1160.404480,2488.171985"/>
    <poly id="254282031" type="building" color="255,230,230" fill="1" layer="-1.00" shape="656.981408,2398.541289 664.566325,2406.432420 671.176152,2415.540829 680.315033,2428.138065 686.054218,2437.685936 691.583951,2447.590599 678.242356,2454.972571 672.056428,2443.552060 663.890629,2430.603419 653.711930,2417.381269 647.049605,2409.194615 656.981408,2398.541289"/>
    <poly id="254282033" type="building" color="255,230,230" fill="1" layer="-1.00" shape="702.373301,2470.987444 707.413746,2483.537719 711.794926,2496.425954 716.074699,2509.370454 722.043401,2528.052399 707.696254,2532.566807 704.745618,2523.763964 698.397422,2503.131177 695.209214,2493.197860 692.151170,2484.784347 688.192657,2476.222176 702.373301,2470.987444"/>
    <poly id="255724628" type="unknown" color="51,128,255" fill="1" layer="-1.00" shape="685.148247,2279.454172 678.351350,2275.964038 672.637170,2270.900614 668.339170,2264.605514 665.731590,2257.442999 664.970562,2249.867020 666.536041,2244.782325 669.891089,2233.945223 675.999284,2227.050386 683.879698,2222.273579 692.822647,2220.019746 702.040670,2220.505702 710.701888,2223.682176 718.032068,2229.266352 723.374180,2236.763620 726.248042,2245.500440 726.401717,2254.690554 722.056616,2264.758006 719.779431,2269.981226 714.261550,2275.262025 707.612292,2279.019426 700.237315,2281.039482 692.593759,2281.185563 685.148247,2279.454172"/>
    <poly id="258711029" type="unknown" color="51,128,255" fill="1" layer="-1.00" shape="1057.077797,2431.817161 1046.344121,2427.146051 1017.909951,2419.942685 1013.131526,2418.579620 1006.439154,2416.553687 1006.137019,2421.551190 1006.053731,2426.313950 1017.308095,2439.373145 1035.889078,2457.606143 1049.177834,2470.428221 1059.022344,2477.614681 1069.951237,2478.887585 1074.893156,2474.865699 1078.747706,2469.519842 1073.224976,2461.624051 1068.616987,2452.378288 1057.077797,2431.817161"/>
    <poly id="28049060" type="leisure" color="207,245,201" fill="1" layer="-2.00" shape="1385.498028,2471.383507 1450.207389,2463.201028 1437.516254,2363.589762 1372.806043,2371.772341 1385.498028,2471.383507"/>
    <poly id="28049060#1" type="sport" color="79,230,125" fill="1" layer="-2.00" shape="1385.498028,2471.383507 1450.207389,2463.201028 1437.516254,2363.589762 1372.806043,2371.772341 1385.498028,2471.383507"/>
    <poly id="28049341" type="leisure" color="207,245,201" fill="1" layer="-2.00" shape="1599.947032,2402.008209 1672.747496,2357.580254 1641.214673,2306.317107 1568.413886,2350.745362 1599.947032,2402.008209"/>
    <poly id="28049341#1" type="sport" color="79,230,125" fill="1" layer="-2.00" shape="1599.947032,2402.008209 1672.747496,2357.580254 1641.214673,2306.317107 1568.413886,2350.745362 1599.947032,2402.008209"/>
    <poly id="29071308" type="tourism" color="207,245,201" fill="1" layer="-2.00" shape="1241.461233,2635.240674 1230.130352,2644.926756 1223.348664,2652.547680 1209.715024,2659.464651 1199.720889,2685.769489 1198.937834,2685.431188 1195.504391,2693.782108 1193.970932,2697.501085 1191.965294,2703.898804 1193.078716,2704.168047 1182.584501,2739.656789 1177.507377,2751.727518 1172.897078,2760.398011 1166.957341,2769.411404 1161.210911,2777.035795 1147.041802,2791.771661 1136.215178,2800.765910 1122.525681,2810.392000 1071.125718,2839.513841 1063.342761,2844.789052 1057.656811,2850.259567 1054.887757,2854.376296 1051.996744,2859.204370 1048.491711,2867.023070 1046.642388,2872.742534 1046.329785,2877.473703 1046.434939,2882.479274 1058.714837,2927.400612 1060.494574,2931.705478 1063.394118,2936.002008 1067.337531,2940.346268 1071.619007,2943.378148 1075.892713,2945.366634 1081.349959,2946.791285 1088.759515,2947.213458 1215.315948,2919.009626 1221.724467,2917.152649 1249.724046,2906.088460 1289.856519,2896.277560 1320.963658,2888.953685 1341.592929,2883.883270 1394.049060,2870.129746 1403.895607,2868.536095 1432.667519,2868.922654 1476.281952,2869.865643 1479.326700,2869.732135 1480.962240,2868.332479 1484.848949,2861.587922 1496.103288,2836.950342 1472.483824,2830.053831 1448.644727,2810.670894 1447.709140,2804.616911 1456.675035,2782.582625 1456.227429,2756.466335 1466.807449,2731.267574 1476.180408,2713.781533 1489.699530,2691.347326 1543.784055,2688.794405 1563.804642,2688.524545 1583.959257,2706.425347 1579.551124,2710.365256 1577.587809,2719.093669 1571.145881,2739.455197 1576.334305,2737.785139 1581.015383,2737.495295 1609.279657,2720.747040 1633.385766,2708.458654 1637.549560,2705.897046 1640.440049,2702.090460 1641.680887,2698.928762 1646.245922,2681.733683 1647.831323,2673.518699 1642.744986,2671.780087 1636.771761,2669.426383 1632.915065,2667.612113 1629.319514,2663.242795 1612.095633,2638.937452 1586.770988,2606.821604 1533.870938,2529.707938 1583.192526,2517.355403 1590.467366,2523.617959 1597.977012,2528.358015 1601.918053,2530.093942 1609.414674,2533.069120 1617.920923,2534.893507 1624.129166,2535.735791 1631.987096,2535.933192 1645.157019,2533.937958 1715.860427,2517.132889 1745.093634,2640.056151 1758.167949,2635.464288 1758.140118,2631.679208 1763.457630,2631.395900 1765.580921,2627.084381 1767.574183,2622.396399 1769.169930,2615.568936 1769.012972,2611.529493 1768.593178,2606.359727 1731.435467,2448.783285 1723.319418,2426.197889 1716.606813,2408.708424 1702.814366,2376.873666 1693.173844,2358.140309 1689.196456,2351.475961 1685.348203,2345.065978 1682.820839,2363.644685 1643.768429,2394.980505 1581.137755,2423.970585 1534.044920,2447.540418 1493.646474,2467.653228 1481.267007,2473.294965 1437.815759,2491.288234 1417.365223,2493.148980 1424.709386,2507.614170 1430.086960,2523.470380 1440.948197,2555.770356 1427.943000,2561.672125 1429.606596,2564.057539 1389.191310,2581.773336 1339.122775,2596.275102 1276.031657,2615.425009 1241.461233,2635.240674"/>
    <poly id="29071314" type="leisure" color="207,245,201" fill="1" layer="-2.00" shape="1149.662038,2312.230354 1136.353910,2328.769204 1135.195718,2420.623795 1135.455729,2469.286693 1158.421877,2466.851454 1181.088292,2453.761981 1187.522075,2462.106204 1176.902952,2503.667866 1214.248529,2533.028964 1287.423954,2536.204679 1341.688315,2518.840851 1401.556483,2493.976382 1436.801249,2490.629704 1480.823254,2471.799671 1493.094974,2466.502845 1577.423490,2424.231093 1643.227230,2394.074248 1681.891501,2363.029896 1684.632407,2342.340515 1657.752398,2305.340542 1614.261683,2252.556010 1533.341600,2154.569010 1522.947840,2144.233433 1509.669098,2135.029228 1489.676565,2126.662779 1452.456026,2115.482072 1426.179429,2111.003033 1393.732533,2110.865653 1377.284930,2120.633756 1348.122227,2127.443406 1305.154489,2147.942547 1279.291715,2163.797155 1260.258145,2177.214575 1255.645176,2177.581812 1241.585928,2178.718477 1204.240690,2217.037270 1189.617655,2237.071355 1168.366755,2275.182010 1149.662038,2312.230354"/>
    <poly id="29071488" type="tourism" color="207,245,201" fill="1" layer="-2.00" shape="691.778473,1830.431253 733.428179,1921.709968 857.486792,1863.647543 878.823654,1865.497365 900.984009,1867.407704 898.632828,1827.518778 897.227933,1822.323108 891.965792,1818.732515 884.000371,1817.881746 823.106712,1821.855582 691.778473,1830.431253"/>
    <poly id="29071494" type="amenity" color="237,199,199" fill="1" layer="-1.00" shape="941.772590,1966.464348 943.546792,1995.012832 971.228463,2052.418246 1041.925970,2048.061750 1036.497841,1960.629844 941.772590,1966.464348"/>
    <poly id="29071702" type="leisure" color="207,245,201" fill="1" layer="-2.00" shape="682.787789,2351.669935 691.698160,2371.129046 710.803840,2363.004581 719.457104,2384.397149 720.554531,2387.053064 729.880222,2408.740322 755.733406,2397.534985 746.978127,2374.966481 741.291126,2365.584683 724.868690,2333.216317 682.787789,2351.669935"/>
    <poly id="29071702#1" type="sport" color="79,230,125" fill="1" layer="-2.00" shape="682.787789,2351.669935 691.698160,2371.129046 710.803840,2363.004581 719.457104,2384.397149 720.554531,2387.053064 729.880222,2408.740322 755.733406,2397.534985 746.978127,2374.966481 741.291126,2365.584683 724.868690,2333.216317 682.787789,2351.669935"/>
    <poly id="29071705" type="water" color="181,209,209" fill="1" layer="-4.00" shape="776.015558,2460.456588 779.943199,2461.503952 784.005515,2461.273746 787.795444,2459.791216 790.923807,2457.203581 793.087174,2453.779523 794.067369,2449.842591 793.765657,2445.804243 792.210476,2442.063887 789.557277,2438.986678 786.079953,2436.892487 781.762951,2435.970139 777.389373,2436.557893 773.467760,2438.585342 770.471390,2441.804728 768.745448,2445.858251 768.489807,2450.244887 769.743065,2454.453722 772.357337,2457.997438 776.015558,2460.456588"/>
    <poly id="291344307" type="building" color="255,230,230" fill="1" layer="-1.00" shape="1650.505952,1656.689859 1657.347038,1675.388270 1672.113673,1669.929091 1665.154567,1651.331441 1650.505952,1656.689859"/>
    <poly id="291344308" type="building" color="255,230,230" fill="1" layer="-1.00" shape="1672.113673,1669.929091 1686.507813,1664.583688 1679.540254,1645.986087 1665.154567,1651.331441 1672.113673,1669.929091"/>
    <poly id="291344309" type="building" color="255,230,230" fill="1" layer="-1.00" shape="1605.884379,1648.992936 1624.047245,1642.664991 1619.323615,1629.212656 1601.160719,1635.540612 1605.884379,1648.992936"/>