<?xml version="1.0" encoding="UTF-8"?>

<!-- generated on 10/13/20 17:33:29 by Eclipse SUMO netconvert Version 1.7.0
<configuration xmlns:xsi="http://www.w3.org/2001/XMLSchema-instance" xsi:noNamespaceSchemaLocation="http://sumo.dlr.de/xsd/netconvertConfiguration.xsd">

    <input>
        <osm-files value="moratalaz.osm"/>
    </input>

    <output>
        <output-file value="moratalaz.net.xml"/>
    </output>

    <projection>
        <proj.utm value="true"/>
    </projection>

    <report>
        <aggregate-warnings value="5"/>
    </report>

</configuration>
-->

<net version="1.6" junctionCornerDetail="5" limitTurnSpeed="5.50" xmlns:xsi="http://www.w3.org/2001/XMLSchema-instance" xsi:noNamespaceSchemaLocation="http://sumo.dlr.de/xsd/net_file.xsd">

    <location netOffset="-443121.07,-4471757.99" convBoundary="0.00,0.00,7343.32,3020.97" origBoundary="-3.670412,40.394951,-3.583692,40.421774" projParameter="+proj=utm +zone=30 +ellps=WGS84 +datum=WGS84 +units=m +no_defs"/>

    <type id="highway.bridleway" priority="1" numLanes="1" speed="2.78" allow="pedestrian" oneway="1" width="2.00"/>
    <type id="highway.bus_guideway" priority="1" numLanes="1" speed="27.78" allow="bus" oneway="1"/>
    <type id="highway.cycleway" priority="1" numLanes="1" speed="8.33" allow="bicycle" oneway="0" width="1.00"/>
    <type id="highway.footway" priority="1" numLanes="1" speed="2.78" allow="pedestrian" oneway="1" width="2.00"/>
    <type id="highway.ford" priority="1" numLanes="1" speed="2.78" allow="army" oneway="0"/>
    <type id="highway.living_street" priority="2" numLanes="1" speed="2.78" disallow="tram rail_urban rail rail_electric rail_fast ship" oneway="0"/>
    <type id="highway.motorway" priority="14" numLanes="2" speed="39.44" allow="private emergency authority army vip passenger hov taxi bus coach delivery truck trailer motorcycle evehicle custom1 custom2" oneway="1"/>
    <type id="highway.motorway_link" priority="9" numLanes="1" speed="22.22" allow="private emergency authority army vip passenger hov taxi bus coach delivery truck trailer motorcycle evehicle custom1 custom2" oneway="1"/>
    <type id="highway.path" priority="1" numLanes="1" speed="2.78" allow="pedestrian bicycle" oneway="1" width="2.00"/>
    <type id="highway.pedestrian" priority="1" numLanes="1" speed="2.78" allow="pedestrian" oneway="1" width="2.00"/>
    <type id="highway.primary" priority="12" numLanes="2" speed="27.78" disallow="tram rail_urban rail rail_electric rail_fast ship" oneway="0"/>
    <type id="highway.primary_link" priority="7" numLanes="1" speed="22.22" disallow="tram rail_urban rail rail_electric rail_fast ship" oneway="0"/>
    <type id="highway.raceway" priority="15" numLanes="2" speed="83.33" allow="vip" oneway="0"/>
    <type id="highway.residential" priority="3" numLanes="1" speed="13.89" disallow="tram rail_urban rail rail_electric rail_fast ship" oneway="0"/>
    <type id="highway.secondary" priority="11" numLanes="1" speed="27.78" disallow="tram rail_urban rail rail_electric rail_fast ship" oneway="0"/>
    <type id="highway.secondary_link" priority="6" numLanes="1" speed="22.22" disallow="tram rail_urban rail rail_electric rail_fast ship" oneway="0"/>
    <type id="highway.service" priority="1" numLanes="1" speed="5.56" allow="pedestrian delivery bicycle" oneway="0"/>
    <type id="highway.stairs" priority="1" numLanes="1" speed="1.39" allow="pedestrian" oneway="1" width="2.00"/>
    <type id="highway.step" priority="1" numLanes="1" speed="1.39" allow="pedestrian" oneway="1" width="2.00"/>
    <type id="highway.steps" priority="1" numLanes="1" speed="1.39" allow="pedestrian" oneway="1" width="2.00"/>
    <type id="highway.tertiary" priority="10" numLanes="1" speed="22.22" disallow="tram rail_urban rail rail_electric rail_fast ship" oneway="0"/>
    <type id="highway.tertiary_link" priority="5" numLanes="1" speed="22.22" disallow="tram rail_urban rail rail_electric rail_fast ship" oneway="0"/>
    <type id="highway.track" priority="1" numLanes="1" speed="5.56" allow="pedestrian motorcycle moped bicycle" oneway="0"/>
    <type id="highway.trunk" priority="13" numLanes="2" speed="27.78" disallow="pedestrian bicycle tram rail_urban rail rail_electric rail_fast ship" oneway="0"/>
    <type id="highway.trunk_link" priority="8" numLanes="1" speed="22.22" disallow="pedestrian bicycle tram rail_urban rail rail_electric rail_fast ship" oneway="0"/>
    <type id="highway.unclassified" priority="4" numLanes="1" speed="13.89" disallow="tram rail_urban rail rail_electric rail_fast ship" oneway="0"/>
    <type id="highway.unsurfaced" priority="1" numLanes="1" speed="8.33" disallow="tram rail_urban rail rail_electric rail_fast ship" oneway="0"/>
    <type id="railway.highspeed" priority="21" numLanes="1" speed="69.44" allow="rail_fast" oneway="1"/>
    <type id="railway.light_rail" priority="19" numLanes="1" speed="27.78" allow="rail_urban" oneway="1"/>
    <type id="railway.preserved" priority="16" numLanes="1" speed="27.78" allow="rail" oneway="1"/>
    <type id="railway.rail" priority="20" numLanes="1" speed="44.44" allow="rail" oneway="1"/>
    <type id="railway.subway" priority="18" numLanes="1" speed="27.78" allow="rail_urban" oneway="1"/>
    <type id="railway.tram" priority="17" numLanes="1" speed="13.89" allow="tram" oneway="1"/>

    <edge id=":1196184854_0" function="internal">
        <lane id=":1196184854_0_0" index="0" allow="private emergency authority army vip passenger hov taxi bus coach delivery truck trailer motorcycle evehicle custom1 custom2" speed="22.22" length="7.15" shape="893.73,2168.23 895.74,2168.57 897.17,2168.37 898.62,2168.08 900.69,2168.13"/>
        <lane id=":1196184854_0_1" index="1" allow="private emergency authority army vip passenger hov taxi bus coach delivery truck trailer motorcycle evehicle custom1 custom2" speed="22.22" length="7.15" shape="893.73,2168.23 895.70,2169.07 896.94,2169.96 898.20,2170.75 900.23,2171.30"/>
    </edge>
    <edge id=":1209330206_0" function="internal">
        <lane id=":1209330206_0_0" index="0" disallow="tram rail_urban rail rail_electric rail_fast ship" speed="13.25" length="16.45" shape="1469.12,1960.95 1464.92,1961.29 1461.05,1962.40 1457.49,1964.29 1454.25,1966.95"/>
    </edge>
    <edge id=":1209330206_1" function="internal">
        <lane id=":1209330206_1_0" index="0" disallow="tram rail_urban rail rail_electric rail_fast ship" speed="22.22" length="16.19" shape="1469.12,1960.95 1465.19,1961.15 1461.07,1961.68 1456.95,1962.31 1453.04,1962.82"/>
    </edge>
    <edge id=":1209330206_2" function="internal">
        <lane id=":1209330206_2_0" index="0" disallow="tram rail_urban rail rail_electric rail_fast ship" speed="3.65" length="2.23" shape="1469.12,1960.95 1467.92,1960.14 1467.58,1959.43"/>
    </edge>
    <edge id=":1209330206_6" function="internal">
        <lane id=":1209330206_6_0" index="0" disallow="tram rail_urban rail rail_electric rail_fast ship" speed="3.65" length="2.45" shape="1467.58,1959.43 1467.53,1959.33 1467.94,1958.54 1469.15,1957.75"/>
    </edge>
    <edge id=":1209330206_3" function="internal">
        <lane id=":1209330206_3_0" index="0" disallow="tram rail_urban rail rail_electric rail_fast ship" speed="22.22" length="16.54" shape="1452.73,1959.64 1456.69,1959.13 1460.93,1958.49 1465.17,1957.95 1469.15,1957.75"/>
    </edge>
    <edge id=":1209330206_4" function="internal">
        <lane id=":1209330206_4_0" index="0" disallow="tram rail_urban rail rail_electric rail_fast ship" speed="6.08" length="5.19" shape="1452.73,1959.64 1456.54,1959.73 1457.60,1960.59"/>
    </edge>
    <edge id=":1209330206_5" function="internal">
        <lane id=":1209330206_5_0" index="0" disallow="tram rail_urban rail rail_electric rail_fast ship" speed="3.65" length="2.34" shape="1452.73,1959.64 1454.00,1960.32 1454.48,1961.07"/>
    </edge>
    <edge id=":1209330206_7" function="internal">
        <lane id=":1209330206_7_0" index="0" disallow="tram rail_urban rail rail_electric rail_fast ship" speed="6.08" length="7.82" shape="1457.60,1960.59 1458.07,1960.97 1457.30,1963.38 1454.25,1966.95"/>
    </edge>
    <edge id=":1209330206_8" function="internal">
        <lane id=":1209330206_8_0" index="0" disallow="tram rail_urban rail rail_electric rail_fast ship" speed="3.65" length="2.34" shape="1454.48,1961.07 1454.16,1961.91 1453.04,1962.82"/>
    </edge>
    <edge id=":1209330264_0" function="internal">
        <lane id=":1209330264_0_0" index="0" allow="bicycle" speed="2.04" length="1.46" width="1.00" shape="1021.51,2978.10 1021.15,2977.83 1021.04,2977.57 1021.18,2977.33 1021.56,2977.10"/>
    </edge>
    <edge id=":1209330323_0" function="internal">
        <lane id=":1209330323_0_0" index="0" allow="private emergency authority army vip passenger hov taxi bus coach delivery truck trailer motorcycle evehicle custom1 custom2" speed="22.22" length="8.02" shape="1675.53,2184.90 1667.91,2182.38"/>
    </edge>
    <edge id=":1209330323_1" function="internal">
        <lane id=":1209330323_1_0" index="0" allow="private emergency authority army vip passenger hov taxi bus coach delivery truck trailer motorcycle evehicle custom1 custom2" speed="22.22" length="8.81" shape="1669.93,2176.32 1672.11,2177.57 1673.23,2179.09 1674.34,2180.62 1676.53,2181.86"/>
    </edge>
    <edge id=":1209330508_0" function="internal">
        <lane id=":1209330508_0_0" index="0" allow="pedestrian bicycle" speed="2.78" length="6.55" width="2.00" shape="1688.51,2364.30 1689.64,2362.72 1690.45,2361.63 1691.06,2360.45 1691.62,2358.61"/>
    </edge>
    <edge id=":1209330508_1" function="internal">
        <lane id=":1209330508_1_0" index="0" allow="pedestrian bicycle" speed="2.78" length="6.56" width="2.00" shape="1691.15,2365.12 1691.13,2363.17 1691.11,2361.83 1691.22,2360.51 1691.62,2358.61"/>
    </edge>
    <edge id=":1209330677_0" function="internal">
        <lane id=":1209330677_0_0" index="0" disallow="tram rail_urban rail rail_electric rail_fast ship" speed="22.22" length="7.91" shape="1604.00,2230.94 1598.93,2224.82"/>
        <lane id=":1209330677_0_1" index="1" disallow="tram rail_urban rail rail_electric rail_fast ship" speed="22.22" length="7.91" shape="1606.43,2228.86 1601.41,2222.79"/>
    </edge>
    <edge id=":1209330677_2" function="internal">
        <lane id=":1209330677_2_0" index="0" allow="pedestrian delivery bicycle" speed="7.38" length="3.36" shape="1606.43,2228.86 1605.62,2227.00 1605.89,2225.69"/>
    </edge>
    <edge id=":1209330677_3" function="internal">
        <lane id=":1209330677_3_0" index="0" disallow="tram rail_urban rail rail_electric rail_fast ship" speed="3.65" length="2.34" shape="1606.43,2228.86 1606.25,2227.42 1606.60,2226.60"/>
    </edge>
    <edge id=":1209330677_9" function="internal">
        <lane id=":1209330677_9_0" index="0" allow="pedestrian delivery bicycle" speed="7.38" length="8.33" shape="1605.89,2225.69 1606.08,2224.75 1607.78,2222.11 1610.73,2219.09"/>
    </edge>
    <edge id=":1209330677_10" function="internal">
        <lane id=":1209330677_10_0" index="0" disallow="tram rail_urban rail rail_electric rail_fast ship" speed="3.65" length="2.34" shape="1606.60,2226.60 1607.47,2226.38 1608.85,2226.77"/>
    </edge>
    <edge id=":1209330677_4" function="internal">
        <lane id=":1209330677_4_0" index="0" allow="pedestrian delivery bicycle" speed="4.59" length="3.89" shape="1612.87,2221.47 1611.85,2222.50 1611.24,2223.38 1611.06,2224.11 1611.28,2224.69"/>
    </edge>
    <edge id=":1209330677_5" function="internal">
        <lane id=":1209330677_5_0" index="0" allow="pedestrian delivery bicycle" speed="7.60" length="13.16" shape="1612.87,2221.47 1609.44,2223.99 1606.39,2225.05 1603.71,2224.65 1601.41,2222.79"/>
    </edge>
    <edge id=":1209330677_6" function="internal">
        <lane id=":1209330677_6_0" index="0" allow="pedestrian delivery bicycle" speed="3.65" length="4.67" shape="1612.87,2221.47 1611.44,2221.67 1610.61,2221.34 1610.37,2220.48 1610.73,2219.09"/>
    </edge>
    <edge id=":1209330677_7" function="internal">
        <lane id=":1209330677_7_0" index="0" disallow="tram rail_urban rail rail_electric rail_fast ship" speed="22.22" length="7.76" shape="1606.37,2218.74 1611.28,2224.69"/>
        <lane id=":1209330677_7_1" index="1" disallow="tram rail_urban rail rail_electric rail_fast ship" speed="22.22" length="7.76" shape="1603.89,2220.76 1608.85,2226.77"/>
    </edge>
    <edge id=":1209330720_0" function="internal">
        <lane id=":1209330720_0_0" index="0" disallow="tram rail_urban rail rail_electric rail_fast ship" speed="22.22" length="10.19" shape="1435.12,2031.93 1428.93,2023.79"/>
        <lane id=":1209330720_0_1" index="1" disallow="tram rail_urban rail rail_electric rail_fast ship" speed="22.22" length="10.19" shape="1437.54,2029.83 1431.40,2021.75"/>
    </edge>
    <edge id=":1209330720_2" function="internal">
        <lane id=":1209330720_2_0" index="0" disallow="tram rail_urban rail rail_electric rail_fast ship" speed="3.65" length="2.45" shape="1437.54,2029.83 1437.36,2028.40 1437.70,2027.58 1437.81,2027.55"/>
    </edge>
    <edge id=":1209330720_8" function="internal">
        <lane id=":1209330720_8_0" index="0" disallow="tram rail_urban rail rail_electric rail_fast ship" speed="3.65" length="2.23" shape="1437.81,2027.55 1438.56,2027.35 1439.96,2027.73"/>
    </edge>
    <edge id=":1209330720_3" function="internal">
        <lane id=":1209330720_3_0" index="0" disallow="tram rail_urban rail rail_electric rail_fast ship" speed="17.89" length="9.44" shape="1440.46,2015.29 1441.27,2017.97 1441.98,2019.77 1443.01,2021.39 1444.79,2023.54"/>
    </edge>
    <edge id=":1209330720_4" function="internal">
        <lane id=":1209330720_4_0" index="0" disallow="tram rail_urban rail rail_electric rail_fast ship" speed="6.19" length="15.30" shape="1440.46,2015.29 1440.34,2019.47 1438.07,2022.53 1434.73,2023.58 1431.40,2021.75"/>
    </edge>
    <edge id=":1209330720_5" function="internal">
        <lane id=":1209330720_5_0" index="0" disallow="tram rail_urban rail rail_electric rail_fast ship" speed="22.22" length="10.03" shape="1436.33,2017.67 1442.37,2025.64"/>
        <lane id=":1209330720_5_1" index="1" disallow="tram rail_urban rail rail_electric rail_fast ship" speed="22.22" length="10.03" shape="1433.87,2019.71 1439.96,2027.73"/>
    </edge>
    <edge id=":1209330720_7" function="internal">
        <lane id=":1209330720_7_0" index="0" disallow="tram rail_urban rail rail_electric rail_fast ship" speed="3.65" length="2.34" shape="1433.87,2019.71 1434.01,2021.14 1433.65,2021.96"/>
    </edge>
    <edge id=":1209330720_9" function="internal">
        <lane id=":1209330720_9_0" index="0" disallow="tram rail_urban rail rail_electric rail_fast ship" speed="3.65" length="2.34" shape="1433.65,2021.96 1432.78,2022.16 1431.40,2021.75"/>
    </edge>
    <edge id=":1209331074_0" function="internal">
        <lane id=":1209331074_0_0" index="0" disallow="tram rail_urban rail rail_electric rail_fast ship" speed="22.22" length="0.24" shape="1448.46,2106.63 1448.22,2106.58"/>
    </edge>
    <edge id=":1209331074_1" function="internal">
        <lane id=":1209331074_1_0" index="0" disallow="tram rail_urban rail rail_electric rail_fast ship" speed="22.22" length="0.29" shape="1448.72,2103.42 1449.01,2103.48"/>
    </edge>
    <edge id=":1209331651_0" function="internal">
        <lane id=":1209331651_0_0" index="0" allow="bicycle" speed="8.33" length="6.41" width="1.00" shape="1695.69,2351.97 1694.84,2350.27 1694.26,2349.10 1693.62,2347.97 1692.60,2346.36"/>
    </edge>
    <edge id=":1209331651_1" function="internal">
        <lane id=":1209331651_1_0" index="0" allow="bicycle" speed="4.44" length="1.38" width="2.00" shape="1695.69,2351.97 1695.16,2350.93 1695.08,2350.74"/>
    </edge>
    <edge id=":1209331651_2" function="internal">
        <lane id=":1209331651_2_0" index="0" allow="bicycle" speed="2.04" length="0.73" width="1.00" shape="1695.69,2351.97 1695.74,2351.53 1695.91,2351.30"/>
    </edge>
    <edge id=":1209331651_9" function="internal">
        <lane id=":1209331651_9_0" index="0" allow="bicycle" speed="4.44" length="3.55" width="2.00" shape="1695.08,2350.74 1694.51,2349.47 1694.13,2348.13 1694.39,2347.41"/>
    </edge>
    <edge id=":1209331651_10" function="internal">
        <lane id=":1209331651_10_0" index="0" allow="bicycle" speed="2.04" length="0.73" width="1.00" shape="1695.91,2351.30 1696.19,2351.30 1696.58,2351.53"/>
    </edge>
    <edge id=":1209331651_3" function="internal">
        <lane id=":1209331651_3_0" index="0" allow="bicycle" speed="3.55" length="2.11" width="2.00" shape="1693.44,2345.81 1693.68,2346.43 1693.77,2347.01 1693.94,2347.39 1694.39,2347.41"/>
    </edge>
    <edge id=":1209331651_4" function="internal">
        <lane id=":1209331651_4_0" index="0" allow="bicycle" speed="8.33" length="6.52" width="1.00" shape="1693.44,2345.81 1694.48,2347.45 1695.13,2348.60 1695.72,2349.79 1696.58,2351.53"/>
    </edge>
    <edge id=":1209331651_5" function="internal">
        <lane id=":1209331651_5_0" index="0" allow="bicycle" speed="2.04" length="0.73" width="1.00" shape="1693.44,2345.81 1693.44,2346.26 1693.30,2346.51"/>
    </edge>
    <edge id=":1209331651_11" function="internal">
        <lane id=":1209331651_11_0" index="0" allow="bicycle" speed="2.04" length="0.73" width="1.00" shape="1693.30,2346.51 1693.02,2346.54 1692.60,2346.36"/>
    </edge>
    <edge id=":1209331651_6" function="internal">
        <lane id=":1209331651_6_0" index="0" allow="bicycle" speed="5.55" length="5.73" width="1.00" shape="1692.75,2351.95 1693.10,2350.15 1693.19,2348.61 1693.03,2347.35 1692.60,2346.36"/>
    </edge>
    <edge id=":1209331651_7" function="internal">
        <lane id=":1209331651_7_0" index="0" allow="pedestrian bicycle" speed="2.78" length="4.48" width="2.00" shape="1693.24,2352.07 1693.41,2351.05 1693.62,2349.73 1693.97,2348.53 1694.54,2347.89"/>
    </edge>
    <edge id=":1209331651_8" function="internal">
        <lane id=":1209331651_8_0" index="0" allow="bicycle" speed="3.95" length="5.07" width="1.00" shape="1693.72,2352.19 1694.30,2350.55 1694.97,2349.89 1695.73,2350.22 1696.58,2351.53"/>
    </edge>
    <edge id=":1209331653_0" function="internal">
        <lane id=":1209331653_0_0" index="0" allow="private emergency authority army vip passenger hov taxi bus coach delivery truck trailer motorcycle evehicle custom1 custom2" speed="22.22" length="7.72" shape="1579.28,2146.34 1586.56,2148.84"/>
        <lane id=":1209331653_0_1" index="1" allow="private emergency authority army vip passenger hov taxi bus coach delivery truck trailer motorcycle evehicle custom1 custom2" speed="22.22" length="7.72" shape="1578.24,2149.36 1585.56,2151.88"/>
    </edge>
    <edge id=":1209331653_2" function="internal">
        <lane id=":1209331653_2_0" index="0" allow="private emergency authority army vip passenger hov taxi bus coach delivery truck trailer motorcycle evehicle custom1 custom2" speed="9.02" length="7.38" shape="1578.53,2153.60 1580.77,2152.57 1582.69,2151.95 1584.29,2151.72 1585.56,2151.88"/>
    </edge>
    <edge id=":1209332307_0" function="internal">
        <lane id=":1209332307_0_0" index="0" allow="bicycle" speed="4.02" length="3.12" width="1.00" shape="1508.17,2127.79 1507.37,2127.37 1506.68,2127.31 1506.08,2127.63 1505.59,2128.32"/>
    </edge>
    <edge id=":1209332307_1" function="internal">
        <lane id=":1209332307_1_0" index="0" disallow="tram rail_urban rail rail_electric rail_fast ship" speed="22.22" length="6.25" shape="1508.81,2126.89 1507.29,2125.84 1506.19,2125.20 1505.01,2124.71 1503.28,2124.06"/>
    </edge>
    <edge id=":1209332307_2" function="internal">
        <lane id=":1209332307_2_0" index="0" allow="bicycle" speed="9.37" length="6.61" width="1.00" shape="1509.45,2126.00 1507.78,2124.93 1506.58,2124.16 1505.71,2123.15 1505.06,2121.40"/>
    </edge>
    <edge id=":1209332307_3" function="internal">
        <lane id=":1209332307_3_0" index="0" allow="bicycle" speed="8.33" length="7.46" width="1.00" shape="1506.03,2121.15 1506.56,2123.29 1506.75,2124.84 1506.47,2126.34 1505.59,2128.32"/>
    </edge>
    <edge id=":1209332307_4" function="internal">
        <lane id=":1209332307_4_0" index="0" allow="bicycle" speed="4.67" length="7.12" shape="1506.03,2121.15 1506.37,2123.51 1505.97,2124.96 1504.81,2125.48 1502.89,2125.09"/>
    </edge>
    <edge id=":1209332307_5" function="internal">
        <lane id=":1209332307_5_0" index="0" allow="bicycle" speed="2.04" length="1.46" width="1.00" shape="1506.03,2121.15 1505.88,2121.57 1505.67,2121.76 1505.39,2121.70 1505.06,2121.40"/>
    </edge>
    <edge id=":1209332307_6" function="internal">
        <lane id=":1209332307_6_0" index="0" allow="bicycle" speed="4.02" length="3.83" shape="1504.70,2127.86 1504.92,2127.03 1504.70,2126.29 1504.02,2125.64 1502.89,2125.09"/>
    </edge>
    <edge id=":1209332307_7" function="internal">
        <lane id=":1209332307_7_0" index="0" allow="bicycle" speed="8.33" length="6.73" width="1.00" shape="1504.70,2127.86 1505.49,2126.08 1505.73,2124.72 1505.55,2123.32 1505.06,2121.40"/>
    </edge>
    <edge id=":1209332307_8" function="internal">
        <lane id=":1209332307_8_0" index="0" allow="bicycle" speed="2.04" length="0.73" width="1.00" shape="1504.70,2127.86 1505.09,2127.64 1505.37,2127.64"/>
    </edge>
    <edge id=":1209332307_9" function="internal">
        <lane id=":1209332307_9_0" index="0" allow="bicycle" speed="2.04" length="0.73" width="1.00" shape="1505.37,2127.64 1505.53,2127.87 1505.59,2128.32"/>
    </edge>
    <edge id=":1211290118_0" function="internal">
        <lane id=":1211290118_0_0" index="0" disallow="tram rail_urban rail rail_electric rail_fast ship" speed="13.89" length="12.18" shape="1584.77,1952.65 1580.99,1941.07"/>
    </edge>
    <edge id=":1211290118_1" function="internal">
        <lane id=":1211290118_1_0" index="0" disallow="tram rail_urban rail rail_electric rail_fast ship" speed="6.67" length="9.56" shape="1584.77,1952.65 1583.04,1946.39 1583.34,1943.34"/>
    </edge>
    <edge id=":1211290118_2" function="internal">
        <lane id=":1211290118_2_0" index="0" disallow="tram rail_urban rail rail_electric rail_fast ship" speed="3.65" length="2.34" shape="1584.77,1952.65 1585.18,1951.26 1585.83,1950.64"/>
    </edge>
    <edge id=":1211290118_9" function="internal">
        <lane id=":1211290118_9_0" index="0" disallow="tram rail_urban rail rail_electric rail_fast ship" speed="6.67" length="7.88" shape="1583.34,1943.34 1585.69,1943.49 1590.07,1946.85"/>
    </edge>
    <edge id=":1211290118_10" function="internal">
        <lane id=":1211290118_10_0" index="0" disallow="tram rail_urban rail rail_electric rail_fast ship" speed="3.65" length="2.34" shape="1585.83,1950.64 1586.71,1950.79 1587.83,1951.70"/>
    </edge>
    <edge id=":1211290118_3" function="internal">
        <lane id=":1211290118_3_0" index="0" disallow="tram rail_urban rail rail_electric rail_fast ship" speed="13.89" length="9.30" shape="1584.03,1940.05 1585.11,1942.50 1586.34,1943.91 1587.92,1945.10 1590.07,1946.85"/>
    </edge>
    <edge id=":1211290118_4" function="internal">
        <lane id=":1211290118_4_0" index="0" disallow="tram rail_urban rail rail_electric rail_fast ship" speed="13.89" length="12.25" shape="1584.03,1940.05 1587.83,1951.70"/>
    </edge>
    <edge id=":1211290118_5" function="internal">
        <lane id=":1211290118_5_0" index="0" disallow="tram rail_urban rail rail_electric rail_fast ship" speed="3.65" length="2.34" shape="1584.03,1940.05 1583.65,1941.44 1583.02,1942.08"/>
    </edge>
    <edge id=":1211290118_11" function="internal">
        <lane id=":1211290118_11_0" index="0" disallow="tram rail_urban rail rail_electric rail_fast ship" speed="3.65" length="2.34" shape="1583.02,1942.08 1582.14,1941.95 1580.99,1941.07"/>
    </edge>
    <edge id=":1211290118_6" function="internal">
        <lane id=":1211290118_6_0" index="0" disallow="tram rail_urban rail rail_electric rail_fast ship" speed="13.89" length="11.94" shape="1581.04,1952.88 1581.44,1949.60 1581.78,1946.89 1581.74,1944.22 1580.99,1941.07"/>
    </edge>
    <edge id=":1211290118_7" function="internal">
        <lane id=":1211290118_7_0" index="0" disallow="tram rail_urban rail rail_electric rail_fast ship" speed="6.95" length="15.69" shape="1581.04,1952.88 1582.04,1947.53 1583.87,1944.74 1586.55,1944.52 1590.07,1946.85"/>
    </edge>
    <edge id=":1211290118_8" function="internal">
        <lane id=":1211290118_8_0" index="0" disallow="tram rail_urban rail rail_electric rail_fast ship" speed="6.65" length="17.75" shape="1581.04,1952.88 1582.00,1946.64 1583.45,1944.36 1585.40,1946.04 1587.83,1951.70"/>
    </edge>
    <edge id=":1211290128_0" function="internal">
        <lane id=":1211290128_0_0" index="0" allow="bicycle" speed="8.33" length="8.56" width="1.00" shape="1487.81,2100.80 1486.04,2098.98 1484.89,2097.67 1483.81,2096.31 1482.26,2094.30"/>
    </edge>
    <edge id=":1211290128_1" function="internal">
        <lane id=":1211290128_1_0" index="0" allow="bicycle" speed="8.04" length="6.61" shape="1487.81,2100.80 1486.45,2099.26 1485.51,2097.80 1484.97,2096.41 1484.83,2095.08"/>
    </edge>
    <edge id=":1211290128_2" function="internal">
        <lane id=":1211290128_2_0" index="0" allow="bicycle" speed="2.04" length="1.46" width="1.00" shape="1487.81,2100.80 1487.72,2100.36 1487.81,2100.09 1488.07,2100.00 1488.52,2100.09"/>
    </edge>
    <edge id=":1211290128_3" function="internal">
        <lane id=":1211290128_3_0" index="0" allow="bicycle" speed="2.88" length="2.72" shape="1483.04,2093.68 1483.58,2094.38 1484.15,2095.05 1484.62,2095.40 1484.83,2095.08"/>
    </edge>
    <edge id=":1211290128_4" function="internal">
        <lane id=":1211290128_4_0" index="0" allow="bicycle" speed="8.33" length="8.44" width="1.00" shape="1483.04,2093.68 1484.58,2095.67 1485.64,2097.01 1486.77,2098.30 1488.52,2100.09"/>
    </edge>
    <edge id=":1211290128_5" function="internal">
        <lane id=":1211290128_5_0" index="0" allow="bicycle" speed="2.04" length="0.73" width="1.00" shape="1483.04,2093.68 1483.08,2094.13 1482.96,2094.39"/>
    </edge>
    <edge id=":1211290128_9" function="internal">
        <lane id=":1211290128_9_0" index="0" allow="bicycle" speed="2.04" length="0.73" width="1.00" shape="1482.96,2094.39 1482.68,2094.44 1482.26,2094.30"/>
    </edge>
    <edge id=":1211290128_6" function="internal">
        <lane id=":1211290128_6_0" index="0" allow="bicycle" speed="5.14" length="4.70" width="1.00" shape="1484.30,2098.36 1484.36,2097.54 1483.77,2096.36 1482.93,2095.17 1482.26,2094.30"/>
    </edge>
    <edge id=":1211290128_7" function="internal">
        <lane id=":1211290128_7_0" index="0" disallow="tram rail_urban rail rail_electric rail_fast ship" speed="7.45" length="4.26" shape="1485.09,2099.13 1485.81,2098.18 1486.00,2097.36 1485.95,2096.42 1485.93,2095.14"/>
    </edge>
    <edge id=":1211290128_8" function="internal">
        <lane id=":1211290128_8_0" index="0" allow="bicycle" speed="4.12" length="3.03" width="1.00" shape="1485.87,2099.90 1486.50,2099.45 1487.14,2099.33 1487.82,2099.54 1488.52,2100.09"/>
    </edge>
    <edge id=":1211290231_0" function="internal">
        <lane id=":1211290231_0_0" index="0" disallow="tram rail_urban rail rail_electric rail_fast ship" speed="22.22" length="12.01" shape="1524.92,2139.58 1522.38,2136.89 1520.37,2135.14 1518.35,2133.68 1515.76,2131.87"/>
    </edge>
    <edge id=":1211290231_1" function="internal">
        <lane id=":1211290231_1_0" index="0" disallow="tram rail_urban rail rail_electric rail_fast ship" speed="22.22" length="3.74" shape="1524.92,2139.58 1524.26,2138.61 1524.05,2137.80 1523.91,2136.95 1523.45,2135.85"/>
        <lane id=":1211290231_1_1" index="1" disallow="tram rail_urban rail rail_electric rail_fast ship" speed="22.22" length="3.74" shape="1527.31,2137.45 1526.79,2136.63 1526.66,2135.94 1526.59,2135.21 1526.23,2134.27"/>
    </edge>
    <edge id=":1211290258_0" function="internal">
        <lane id=":1211290258_0_0" index="0" disallow="tram rail_urban rail rail_electric rail_fast ship" speed="22.22" length="16.20" shape="1573.75,1963.49 1557.56,1962.98"/>
    </edge>
    <edge id=":1211290258_1" function="internal">
        <lane id=":1211290258_1_0" index="0" disallow="tram rail_urban rail rail_electric rail_fast ship" speed="6.61" length="7.96" shape="1573.75,1963.49 1567.95,1962.87 1566.20,1961.65"/>
    </edge>
    <edge id=":1211290258_2" function="internal">
        <lane id=":1211290258_2_0" index="0" disallow="tram rail_urban rail rail_electric rail_fast ship" speed="3.65" length="2.34" shape="1573.75,1963.49 1572.58,1962.65 1572.20,1961.84"/>
    </edge>
    <edge id=":1211290258_6" function="internal">
        <lane id=":1211290258_6_0" index="0" disallow="tram rail_urban rail rail_electric rail_fast ship" speed="6.61" length="9.47" shape="1566.20,1961.65 1565.96,1961.49 1567.80,1959.35 1573.46,1956.45"/>
    </edge>
    <edge id=":1211290258_7" function="internal">
        <lane id=":1211290258_7_0" index="0" disallow="tram rail_urban rail rail_electric rail_fast ship" speed="3.65" length="2.34" shape="1572.20,1961.84 1572.63,1961.06 1573.85,1960.29"/>
    </edge>
    <edge id=":1211290258_3" function="internal">
        <lane id=":1211290258_3_0" index="0" disallow="tram rail_urban rail rail_electric rail_fast ship" speed="18.06" length="16.26" shape="1557.66,1959.79 1561.59,1959.61 1565.71,1958.92 1569.76,1957.83 1573.46,1956.45"/>
    </edge>
    <edge id=":1211290258_4" function="internal">
        <lane id=":1211290258_4_0" index="0" disallow="tram rail_urban rail rail_electric rail_fast ship" speed="22.22" length="16.20" shape="1557.66,1959.79 1573.85,1960.29"/>
    </edge>
    <edge id=":1211290258_5" function="internal">