<additional>
    <e1Detector id="0" lane="e4i_0" pos="50" freq="5" file="cross.out.xml" friendlyPos="yes"/>
</additional>