<additional>
    <e1Detector id="det_1_0" lane="e1_0" pos="-30" freq="300" file="det.out.xml" />
</additional>