<?xml version="1.0" encoding="UTF-8"?>

<!-- generated on 11/13/20 00:03:48 by Eclipse SUMO netedit Version 1.7.0
<configuration xmlns:xsi="http://www.w3.org/2001/XMLSchema-instance" xsi:noNamespaceSchemaLocation="http://sumo.dlr.de/xsd/netconvertConfiguration.xsd">

    <input>
        <sumo-net-file value="C:\Users\Sandrus\Documents\Research\SUMO\SUMO_DEMOS\Parkings\ThreeEdges_OneCar_Parking\threeEdges_OneCar.net.xml"/>
    </input>

    <output>
        <output-file value="C:\Users\Sandrus\Documents\Research\SUMO\SUMO_DEMOS\Parkings\ThreeEdges_OneCar_Parking\threeEdges_OneCar.net.xml"/>
    </output>

    <processing>
        <geometry.min-radius.fix.railways value="false"/>
        <geometry.max-grade.fix value="false"/>
        <offset.disable-normalization value="true"/>
        <lefthand value="false"/>
    </processing>

    <junctions>
        <no-turnarounds value="true"/>
        <junctions.corner-detail value="5"/>
        <junctions.limit-turn-speed value="5.5"/>
        <rectangular-lane-cut value="false"/>
    </junctions>

    <pedestrian>
        <walkingareas value="false"/>
    </pedestrian>

    <netedit>
        <additional-files value="C:\Users\Sandrus\Documents\Research\SUMO\SUMO_DEMOS\Parkings\ThreeEdges_OneCar_Parking\threeEdges_OneCar_Parking.add.xml"/>
        <route-files value="C:\Users\Sandrus\Documents\Research\SUMO\SUMO_DEMOS\Parkings\ThreeEdges_OneCar_Parking\threeEdges_Onecar.rou.xml"/>
    </netedit>

    <report>
        <aggregate-warnings value="5"/>
    </report>

</configuration>
-->

<additional xmlns:xsi="http://www.w3.org/2001/XMLSchema-instance" xsi:noNamespaceSchemaLocation="http://sumo.dlr.de/xsd/additional_file.xsd">
    <parkingArea id="parkingArea_0" lane="-edge1_0" startPos="500.85" endPos="510.85" roadsideCapacity="5" width="10.00" length="10"/>
    <parkingArea id="parkingArea_1" lane="edge1_0" startPos="140.38" endPos="150.38" roadsideCapacity="5" friendlyPos="1" width="10.00" length="10"/>
    <parkingArea id="parkingArea_3" lane="-edge2_0" startPos="121.96" endPos="131.96" roadsideCapacity="10" onRoad="1" friendlyPos="1" width="10.00" length="10"/>
</additional>
