<?xml version="1.0" encoding="UTF-8"?>

<!-- generated on 03/08/21 10:32:15 by Eclipse SUMO netedit Version 1.7.0
<configuration xmlns:xsi="http://www.w3.org/2001/XMLSchema-instance" xsi:noNamespaceSchemaLocation="http://sumo.dlr.de/xsd/netconvertConfiguration.xsd">

    <input>
        <sumo-net-file value="C:\Users\Sandrus\Documents\Research\SUMO-GitGrupo\SUMO-emissions\SUMO_emissions_runner\emissionsBIG.net.xml"/>
    </input>

    <output>
        <output-file value="C:\Users\Sandrus\Documents\Research\SUMO-GitGrupo\SUMO-emissions\SUMO_emissions_runner\emissionsBIG.net.xml"/>
    </output>

    <processing>
        <geometry.min-radius.fix.railways value="false"/>
        <geometry.max-grade.fix value="false"/>
        <offset.disable-normalization value="true"/>
        <lefthand value="false"/>
    </processing>

    <junctions>
        <no-turnarounds value="true"/>
        <junctions.corner-detail value="5"/>
        <junctions.limit-turn-speed value="5.5"/>
        <rectangular-lane-cut value="false"/>
    </junctions>

    <pedestrian>
        <walkingareas value="false"/>
    </pedestrian>

    <report>
        <aggregate-warnings value="5"/>
    </report>

</configuration>
-->

<net version="1.6" junctionCornerDetail="5" limitTurnSpeed="5.50" xmlns:xsi="http://www.w3.org/2001/XMLSchema-instance" xsi:noNamespaceSchemaLocation="http://sumo.dlr.de/xsd/net_file.xsd">

    <location netOffset="0.00,0.00" convBoundary="-1750.00,-14000.00,14000.00,1750.00" origBoundary="-10000000000.00,-10000000000.00,10000000000.00,10000000000.00" projParameter="!"/>

    <edge id=":gneJ103_0" function="internal">
        <lane id=":gneJ103_0_0" index="0" speed="13.89" length="0.10" shape="0.00,-5248.40 0.00,-5248.40"/>
    </edge>
    <edge id=":gneJ103_1" function="internal">
        <lane id=":gneJ103_1_0" index="0" speed="13.89" length="0.10" shape="0.00,-5251.60 0.00,-5251.60"/>
    </edge>
    <edge id=":gneJ104_0" function="internal">
        <lane id=":gneJ104_0_0" index="0" speed="13.89" length="0.10" shape="0.00,-6998.40 0.00,-6998.40"/>
    </edge>
    <edge id=":gneJ104_1" function="internal">
        <lane id=":gneJ104_1_0" index="0" speed="13.89" length="0.10" shape="0.00,-7001.60 0.00,-7001.60"/>
    </edge>
    <edge id=":gneJ118_0" function="internal">
        <lane id=":gneJ118_0_0" index="0" speed="13.89" length="0.10" shape="1750.00,-5248.40 1750.00,-5248.40"/>
    </edge>
    <edge id=":gneJ118_1" function="internal">
        <lane id=":gneJ118_1_0" index="0" speed="13.89" length="0.10" shape="1750.00,-5251.60 1750.00,-5251.60"/>
    </edge>
    <edge id=":gneJ119_0" function="internal">
        <lane id=":gneJ119_0_0" index="0" speed="13.89" length="0.10" shape="1750.00,-6998.40 1750.00,-6998.40"/>
    </edge>
    <edge id=":gneJ119_1" function="internal">
        <lane id=":gneJ119_1_0" index="0" speed="13.89" length="0.10" shape="1750.00,-7001.60 1750.00,-7001.60"/>
    </edge>
    <edge id=":gneJ128_0" function="internal">
        <lane id=":gneJ128_0_0" index="0" speed="6.15" length="10.61" shape="3005.26,-2999.53 3002.14,-2999.27 3000.14,-3000.14 2999.27,-3002.14 2999.53,-3005.26"/>
    </edge>
    <edge id=":gneJ128_1" function="internal">
        <lane id=":gneJ128_1_0" index="0" speed="3.94" length="3.54" shape="3002.65,-3004.56 3002.57,-3003.52 3002.86,-3002.86 3003.52,-3002.57 3004.56,-3002.65"/>
    </edge>
    <edge id=":gneJ131_0" function="internal">
        <lane id=":gneJ131_0_0" index="0" speed="6.09" length="9.06" shape="5248.40,-3492.01 5248.03,-3494.55 5246.94,-3496.18 5245.11,-3496.90 5242.55,-3496.71"/>
    </edge>
    <edge id=":gneJ131_1" function="internal">
        <lane id=":gneJ131_1_0" index="0" speed="13.89" length="15.19" shape="5248.40,-3492.01 5248.40,-3507.20"/>
    </edge>
    <edge id=":gneJ131_2" function="internal">
        <lane id=":gneJ131_2_0" index="0" speed="8.17" length="6.41" shape="5248.40,-3492.01 5248.95,-3496.21 5250.00,-3498.11"/>
    </edge>
    <edge id=":gneJ131_12" function="internal">
        <lane id=":gneJ131_12_0" index="0" speed="8.17" length="8.43" shape="5250.00,-3498.11 5250.60,-3499.20 5253.35,-3501.00 5257.20,-3501.60"/>
    </edge>
    <edge id=":gneJ131_3" function="internal">
        <lane id=":gneJ131_3_0" index="0" speed="6.71" length="9.68" shape="5257.20,-3498.40 5254.75,-3498.00 5253.00,-3496.80 5251.95,-3494.81 5251.60,-3492.01"/>
    </edge>
    <edge id=":gneJ131_4" function="internal">
        <lane id=":gneJ131_4_0" index="0" speed="13.89" length="14.78" shape="5257.20,-3498.40 5253.49,-3498.29 5249.83,-3497.96 5246.19,-3497.43 5242.55,-3496.71"/>
    </edge>
    <edge id=":gneJ131_5" function="internal">
        <lane id=":gneJ131_5_0" index="0" speed="8.00" length="14.19" shape="5257.20,-3498.40 5253.35,-3498.95 5250.60,-3500.60 5248.95,-3503.35 5248.40,-3507.20"/>
    </edge>
    <edge id=":gneJ131_6" function="internal">
        <lane id=":gneJ131_6_0" index="0" speed="6.51" length="9.03" shape="5251.60,-3507.20 5251.95,-3504.75 5253.00,-3503.00 5254.75,-3501.95 5257.20,-3501.60"/>
    </edge>
    <edge id=":gneJ131_7" function="internal">
        <lane id=":gneJ131_7_0" index="0" speed="13.89" length="15.19" shape="5251.60,-3507.20 5251.60,-3492.01"/>
    </edge>
    <edge id=":gneJ131_8" function="internal">
        <lane id=":gneJ131_8_0" index="0" speed="8.99" length="5.99" shape="5251.60,-3507.20 5251.03,-3503.36 5250.00,-3501.52"/>
    </edge>
    <edge id=":gneJ131_13" function="internal">
        <lane id=":gneJ131_13_0" index="0" speed="8.99" length="9.16" shape="5250.00,-3501.52 5249.34,-3500.33 5246.51,-3498.12 5242.55,-3496.71"/>
    </edge>
    <edge id=":gneJ131_9" function="internal">
        <lane id=":gneJ131_9_0" index="0" speed="7.66" length="10.77" shape="5241.85,-3499.83 5244.72,-3500.84 5246.76,-3502.40 5247.99,-3504.52 5248.40,-3507.20"/>
    </edge>
    <edge id=":gneJ131_10" function="internal">
        <lane id=":gneJ131_10_0" index="0" speed="13.89" length="15.48" shape="5241.85,-3499.83 5245.61,-3500.56 5249.48,-3501.12 5253.38,-3501.48 5257.20,-3501.60"/>
    </edge>
    <edge id=":gneJ131_11" function="internal">
        <lane id=":gneJ131_11_0" index="0" speed="7.66" length="15.10" shape="5241.85,-3499.83 5246.12,-3500.15 5249.16,-3498.96 5250.99,-3496.24 5251.60,-3492.01"/>
    </edge>
    <edge id=":gneJ132_0" function="internal">
        <lane id=":gneJ132_0_0" index="0" speed="6.71" length="9.68" shape="6998.40,-3492.01 6998.05,-3494.81 6997.00,-3496.80 6995.25,-3498.00 6992.80,-3498.40"/>
    </edge>
    <edge id=":gneJ132_1" function="internal">
        <lane id=":gneJ132_1_0" index="0" speed="13.89" length="15.19" shape="6998.40,-3492.01 6998.40,-3507.20"/>
    </edge>
    <edge id=":gneJ132_2" function="internal">
        <lane id=":gneJ132_2_0" index="0" speed="7.66" length="6.05" shape="6998.40,-3492.01 6999.01,-3496.24 7000.00,-3497.71"/>
    </edge>
    <edge id=":gneJ132_12" function="internal">
        <lane id=":gneJ132_12_0" index="0" speed="7.66" length="9.05" shape="7000.00,-3497.71 7000.84,-3498.96 7003.88,-3500.15 7008.15,-3499.83"/>
    </edge>
    <edge id=":gneJ132_3" function="internal">
        <lane id=":gneJ132_3_0" index="0" speed="6.09" length="9.06" shape="7007.45,-3496.71 7004.89,-3496.90 7003.06,-3496.18 7001.97,-3494.55 7001.60,-3492.01"/>
    </edge>
    <edge id=":gneJ132_4" function="internal">
        <lane id=":gneJ132_4_0" index="0" speed="13.89" length="14.78" shape="7007.45,-3496.71 7003.81,-3497.43 7000.17,-3497.96 6996.51,-3498.29 6992.80,-3498.40"/>
    </edge>
    <edge id=":gneJ132_5" function="internal">
        <lane id=":gneJ132_5_0" index="0" speed="8.99" length="15.15" shape="7007.45,-3496.71 7003.49,-3498.12 7000.66,-3500.33 6998.97,-3503.36 6998.40,-3507.20"/>
    </edge>
    <edge id=":gneJ132_6" function="internal">
        <lane id=":gneJ132_6_0" index="0" speed="7.66" length="10.77" shape="7001.60,-3507.20 7002.01,-3504.52 7003.24,-3502.40 7005.28,-3500.84 7008.15,-3499.83"/>
    </edge>
    <edge id=":gneJ132_7" function="internal">
        <lane id=":gneJ132_7_0" index="0" speed="13.89" length="15.19" shape="7001.60,-3507.20 7001.60,-3492.01"/>
    </edge>
    <edge id=":gneJ132_8" function="internal">
        <lane id=":gneJ132_8_0" index="0" speed="8.00" length="5.93" shape="7001.60,-3507.20 7001.05,-3503.35 7000.00,-3501.60"/>
    </edge>
    <edge id=":gneJ132_13" function="internal">
        <lane id=":gneJ132_13_0" index="0" speed="8.00" length="8.26" shape="7000.00,-3501.60 6999.40,-3500.60 6996.65,-3498.95 6992.80,-3498.40"/>
    </edge>
    <edge id=":gneJ132_9" function="internal">
        <lane id=":gneJ132_9_0" index="0" speed="6.51" length="9.03" shape="6992.80,-3501.60 6995.25,-3501.95 6997.00,-3503.00 6998.05,-3504.75 6998.40,-3507.20"/>
    </edge>
    <edge id=":gneJ132_10" function="internal">
        <lane id=":gneJ132_10_0" index="0" speed="13.89" length="15.48" shape="6992.80,-3501.60 6996.62,-3501.48 7000.52,-3501.12 7004.39,-3500.56 7008.15,-3499.83"/>
    </edge>
    <edge id=":gneJ132_11" function="internal">
        <lane id=":gneJ132_11_0" index="0" speed="8.17" length="14.83" shape="6992.80,-3501.60 6996.65,-3501.00 6999.40,-3499.20 7001.05,-3496.21 7001.60,-3492.01"/>
    </edge>
    <edge id=":gneJ133_0" function="internal">
        <lane id=":gneJ133_0_0" index="0" speed="6.15" length="10.61" shape="9250.47,-3005.26 9250.73,-3002.14 9249.86,-3000.14 9247.86,-2999.27 9244.74,-2999.53"/>
    </edge>
    <edge id=":gneJ133_1" function="internal">
        <lane id=":gneJ133_1_0" index="0" speed="3.94" length="3.54" shape="9245.44,-3002.65 9246.48,-3002.57 9247.14,-3002.86 9247.43,-3003.52 9247.35,-3004.56"/>
    </edge>
    <edge id=":gneJ138_0" function="internal">
        <lane id=":gneJ138_0_0" index="0" speed="7.66" length="10.77" shape="3507.20,-5248.40 3504.52,-5247.99 3502.40,-5246.76 3500.84,-5244.72 3499.83,-5241.85"/>
    </edge>
    <edge id=":gneJ138_1" function="internal">
        <lane id=":gneJ138_1_0" index="0" speed="13.89" length="15.19" shape="3507.20,-5248.40 3492.01,-5248.40"/>
    </edge>
    <edge id=":gneJ138_2" function="internal">
        <lane id=":gneJ138_2_0" index="0" speed="8.00" length="5.93" shape="3507.20,-5248.40 3503.35,-5248.95 3501.60,-5250.00"/>
    </edge>
    <edge id=":gneJ138_12" function="internal">
        <lane id=":gneJ138_12_0" index="0" speed="8.00" length="8.26" shape="3501.60,-5250.00 3500.60,-5250.60 3498.95,-5253.35 3498.40,-5257.20"/>
    </edge>
    <edge id=":gneJ138_3" function="internal">
        <lane id=":gneJ138_3_0" index="0" speed="6.51" length="9.03" shape="3501.60,-5257.20 3501.95,-5254.75 3503.00,-5253.00 3504.75,-5251.95 3507.20,-5251.60"/>
    </edge>
    <edge id=":gneJ138_4" function="internal">
        <lane id=":gneJ138_4_0" index="0" speed="13.89" length="15.48" shape="3501.60,-5257.20 3501.48,-5253.38 3501.12,-5249.48 3500.56,-5245.61 3499.83,-5241.85"/>
    </edge>
    <edge id=":gneJ138_5" function="internal">
        <lane id=":gneJ138_5_0" index="0" speed="8.17" length="14.83" shape="3501.60,-5257.20 3501.00,-5253.35 3499.20,-5250.60 3496.21,-5248.95 3492.01,-5248.40"/>
    </edge>
    <edge id=":gneJ138_6" function="internal">
        <lane id=":gneJ138_6_0" index="0" speed="6.71" length="9.68" shape="3492.01,-5251.60 3494.81,-5251.95 3496.80,-5253.00 3498.00,-5254.75 3498.40,-5257.20"/>
    </edge>
    <edge id=":gneJ138_7" function="internal">
        <lane id=":gneJ138_7_0" index="0" speed="13.89" length="15.19" shape="3492.01,-5251.60 3507.20,-5251.60"/>
    </edge>
    <edge id=":gneJ138_8" function="internal">
        <lane id=":gneJ138_8_0" index="0" speed="7.66" length="6.05" shape="3492.01,-5251.60 3496.24,-5250.99 3497.71,-5250.00"/>
    </edge>
    <edge id=":gneJ138_13" function="internal">
        <lane id=":gneJ138_13_0" index="0" speed="7.66" length="9.05" shape="3497.71,-5250.00 3498.96,-5249.16 3500.15,-5246.12 3499.83,-5241.85"/>
    </edge>
    <edge id=":gneJ138_9" function="internal">
        <lane id=":gneJ138_9_0" index="0" speed="6.09" length="9.06" shape="3496.71,-5242.55 3496.90,-5245.11 3496.18,-5246.94 3494.55,-5248.03 3492.01,-5248.40"/>
    </edge>
    <edge id=":gneJ138_10" function="internal">
        <lane id=":gneJ138_10_0" index="0" speed="13.89" length="14.78" shape="3496.71,-5242.55 3497.43,-5246.19 3497.96,-5249.83 3498.29,-5253.49 3498.40,-5257.20"/>
    </edge>
    <edge id=":gneJ138_11" function="internal">
        <lane id=":gneJ138_11_0" index="0" speed="8.99" length="15.15" shape="3496.71,-5242.55 3498.12,-5246.51 3500.33,-5249.34 3503.36,-5251.03 3507.20,-5251.60"/>
    </edge>
    <edge id=":gneJ139_0" function="internal">
        <lane id=":gneJ139_0_0" index="0" speed="6.51" length="9.03" shape="5248.40,-5242.80 5248.05,-5245.25 5247.00,-5247.00 5245.25,-5248.05 5242.80,-5248.40"/>
    </edge>
    <edge id=":gneJ139_1" function="internal">
        <lane id=":gneJ139_1_0" index="0" speed="13.89" length="14.40" shape="5248.40,-5242.80 5248.40,-5257.20"/>
    </edge>
    <edge id=":gneJ139_2" function="internal">
        <lane id=":gneJ139_2_0" index="0" speed="8.00" length="5.93" shape="5248.40,-5242.80 5248.95,-5246.65 5250.00,-5248.40"/>
    </edge>
    <edge id=":gneJ139_12" function="internal">
        <lane id=":gneJ139_12_0" index="0" speed="8.00" length="8.26" shape="5250.00,-5248.40 5250.60,-5249.40 5253.35,-5251.05 5257.20,-5251.60"/>
    </edge>
    <edge id=":gneJ139_3" function="internal">
        <lane id=":gneJ139_3_0" index="0" speed="6.51" length="9.03" shape="5257.20,-5248.40 5254.75,-5248.05 5253.00,-5247.00 5251.95,-5245.25 5251.60,-5242.80"/>
    </edge>
    <edge id=":gneJ139_4" function="internal">
        <lane id=":gneJ139_4_0" index="0" speed="13.89" length="14.40" shape="5257.20,-5248.40 5242.80,-5248.40"/>
    </edge>
    <edge id=":gneJ139_5" function="internal">
        <lane id=":gneJ139_5_0" index="0" speed="8.00" length="14.19" shape="5257.20,-5248.40 5253.35,-5248.95 5250.60,-5250.60 5248.95,-5253.35 5248.40,-5257.20"/>
    </edge>
    <edge id=":gneJ139_6" function="internal">
        <lane id=":gneJ139_6_0" index="0" speed="6.51" length="9.03" shape="5251.60,-5257.20 5251.95,-5254.75 5253.00,-5253.00 5254.75,-5251.95 5257.20,-5251.60"/>
    </edge>
    <edge id=":gneJ139_7" function="internal">
        <lane id=":gneJ139_7_0" index="0" speed="13.89" length="14.40" shape="5251.60,-5257.20 5251.60,-5242.80"/>
    </edge>
    <edge id=":gneJ139_8" function="internal">
        <lane id=":gneJ139_8_0" index="0" speed="8.00" length="5.93" shape="5251.60,-5257.20 5251.05,-5253.35 5250.00,-5251.60"/>
    </edge>
    <edge id=":gneJ139_13" function="internal">
        <lane id=":gneJ139_13_0" index="0" speed="8.00" length="8.26" shape="5250.00,-5251.60 5249.40,-5250.60 5246.65,-5248.95 5242.80,-5248.40"/>
    </edge>
    <edge id=":gneJ139_9" function="internal">
        <lane id=":gneJ139_9_0" index="0" speed="6.51" length="9.03" shape="5242.80,-5251.60 5245.25,-5251.95 5247.00,-5253.00 5248.05,-5254.75 5248.40,-5257.20"/>
    </edge>
    <edge id=":gneJ139_10" function="internal">
        <lane id=":gneJ139_10_0" index="0" speed="13.89" length="14.40" shape="5242.80,-5251.60 5257.20,-5251.60"/>
    </edge>
    <edge id=":gneJ139_11" function="internal">
        <lane id=":gneJ139_11_0" index="0" speed="8.00" length="14.19" shape="5242.80,-5251.60 5246.65,-5251.05 5249.40,-5249.40 5251.05,-5246.65 5251.60,-5242.80"/>
    </edge>
    <edge id=":gneJ140_0" function="internal">
        <lane id=":gneJ140_0_0" index="0" speed="6.51" length="9.03" shape="6998.40,-5242.80 6998.05,-5245.25 6997.00,-5247.00 6995.25,-5248.05 6992.80,-5248.40"/>
    </edge>
    <edge id=":gneJ140_1" function="internal">
        <lane id=":gneJ140_1_0" index="0" speed="13.89" length="14.40" shape="6998.40,-5242.80 6998.40,-5257.20"/>
    </edge>
    <edge id=":gneJ140_2" function="internal">
        <lane id=":gneJ140_2_0" index="0" speed="8.00" length="5.93" shape="6998.40,-5242.80 6998.95,-5246.65 7000.00,-5248.40"/>
    </edge>
    <edge id=":gneJ140_12" function="internal">
        <lane id=":gneJ140_12_0" index="0" speed="8.00" length="8.26" shape="7000.00,-5248.40 7000.60,-5249.40 7003.35,-5251.05 7007.20,-5251.60"/>
    </edge>
    <edge id=":gneJ140_3" function="internal">
        <lane id=":gneJ140_3_0" index="0" speed="6.51" length="9.03" shape="7007.20,-5248.40 7004.75,-5248.05 7003.00,-5247.00 7001.95,-5245.25 7001.60,-5242.80"/>
    </edge>
    <edge id=":gneJ140_4" function="internal">
        <lane id=":gneJ140_4_0" index="0" speed="13.89" length="14.40" shape="7007.20,-5248.40 6992.80,-5248.40"/>
    </edge>
    <edge id=":gneJ140_5" function="internal">
        <lane id=":gneJ140_5_0" index="0" speed="8.00" length="14.19" shape="7007.20,-5248.40 7003.35,-5248.95 7000.60,-5250.60 6998.95,-5253.35 6998.40,-5257.20"/>
    </edge>
    <edge id=":gneJ140_6" function="internal">
        <lane id=":gneJ140_6_0" index="0" speed="6.51" length="9.03" shape="7001.60,-5257.20 7001.95,-5254.75 7003.00,-5253.00 7004.75,-5251.95 7007.20,-5251.60"/>
    </edge>
    <edge id=":gneJ140_7" function="internal">
        <lane id=":gneJ140_7_0" index="0" speed="13.89" length="14.40" shape="7001.60,-5257.20 7001.60,-5242.80"/>
    </edge>
    <edge id=":gneJ140_8" function="internal">
        <lane id=":gneJ140_8_0" index="0" speed="8.00" length="5.93" shape="7001.60,-5257.20 7001.05,-5253.35 7000.00,-5251.60"/>
    </edge>
    <edge id=":gneJ140_13" function="internal">
        <lane id=":gneJ140_13_0" index="0" speed="8.00" length="8.26" shape="7000.00,-5251.60 6999.40,-5250.60 6996.65,-5248.95 6992.80,-5248.40"/>
    </edge>
    <edge id=":gneJ140_9" function="internal">
        <lane id=":gneJ140_9_0" index="0" speed="6.51" length="9.03" shape="6992.80,-5251.60 6995.25,-5251.95 6997.00,-5253.00 6998.05,-5254.75 6998.40,-5257.20"/>
    </edge>
    <edge id=":gneJ140_10" function="internal">
        <lane id=":gneJ140_10_0" index="0" speed="13.89" length="14.40" shape="6992.80,-5251.60 7007.20,-5251.60"/>
    </edge>
    <edge id=":gneJ140_11" function="internal">
        <lane id=":gneJ140_11_0" index="0" speed="8.00" length="14.19" shape="6992.80,-5251.60 6996.65,-5251.05 6999.40,-5249.40 7001.05,-5246.65 7001.60,-5242.80"/>
    </edge>
    <edge id=":gneJ141_0" function="internal">
        <lane id=":gneJ141_0_0" index="0" speed="7.66" length="10.77" shape="8750.17,-5241.85 8749.16,-5244.72 8747.60,-5246.76 8745.48,-5247.99 8742.80,-5248.40"/>
    </edge>
    <edge id=":gneJ141_1" function="internal">
        <lane id=":gneJ141_1_0" index="0" speed="13.89" length="15.48" shape="8750.17,-5241.85 8749.44,-5245.61 8748.88,-5249.48 8748.52,-5253.38 8748.40,-5257.20"/>
    </edge>
    <edge id=":gneJ141_2" function="internal">
        <lane id=":gneJ141_2_0" index="0" speed="7.66" length="15.10" shape="8750.17,-5241.85 8749.85,-5246.12 8751.04,-5249.16 8753.76,-5250.99 8757.99,-5251.60"/>
    </edge>
    <edge id=":gneJ141_3" function="internal">
        <lane id=":gneJ141_3_0" index="0" speed="6.09" length="9.06" shape="8757.99,-5248.40 8755.45,-5248.03 8753.82,-5246.94 8753.10,-5245.11 8753.29,-5242.55"/>
    </edge>
    <edge id=":gneJ141_4" function="internal">
        <lane id=":gneJ141_4_0" index="0" speed="13.89" length="15.19" shape="8757.99,-5248.40 8742.80,-5248.40"/>
    </edge>
    <edge id=":gneJ141_5" function="internal">
        <lane id=":gneJ141_5_0" index="0" speed="8.17" length="6.41" shape="8757.99,-5248.40 8753.79,-5248.95 8751.89,-5250.00"/>
    </edge>
    <edge id=":gneJ141_12" function="internal">
        <lane id=":gneJ141_12_0" index="0" speed="8.17" length="8.43" shape="8751.89,-5250.00 8750.80,-5250.60 8749.00,-5253.35 8748.40,-5257.20"/>
    </edge>
    <edge id=":gneJ141_6" function="internal">
        <lane id=":gneJ141_6_0" index="0" speed="6.71" length="9.68" shape="8751.60,-5257.20 8752.00,-5254.75 8753.20,-5253.00 8755.19,-5251.95 8757.99,-5251.60"/>
    </edge>
    <edge id=":gneJ141_7" function="internal">
        <lane id=":gneJ141_7_0" index="0" speed="13.89" length="14.78" shape="8751.60,-5257.20 8751.71,-5253.49 8752.04,-5249.83 8752.57,-5246.19 8753.29,-5242.55"/>
    </edge>
    <edge id=":gneJ141_8" function="internal">
        <lane id=":gneJ141_8_0" index="0" speed="8.00" length="14.19" shape="8751.60,-5257.20 8751.05,-5253.35 8749.40,-5250.60 8746.65,-5248.95 8742.80,-5248.40"/>
    </edge>
    <edge id=":gneJ141_9" function="internal">
        <lane id=":gneJ141_9_0" index="0" speed="6.51" length="9.03" shape="8742.80,-5251.60 8745.25,-5251.95 8747.00,-5253.00 8748.05,-5254.75 8748.40,-5257.20"/>
    </edge>
    <edge id=":gneJ141_10" function="internal">
        <lane id=":gneJ141_10_0" index="0" speed="13.89" length="15.19" shape="8742.80,-5251.60 8757.99,-5251.60"/>
    </edge>
    <edge id=":gneJ141_11" function="internal">
        <lane id=":gneJ141_11_0" index="0" speed="8.99" length="5.99" shape="8742.80,-5251.60 8746.64,-5251.03 8748.48,-5250.00"/>
    </edge>
    <edge id=":gneJ141_13" function="internal">
        <lane id=":gneJ141_13_0" index="0" speed="8.99" length="9.16" shape="8748.48,-5250.00 8749.67,-5249.34 8751.88,-5246.51 8753.29,-5242.55"/>
    </edge>
    <edge id=":gneJ142_0" function="internal">
        <lane id=":gneJ142_0_0" index="0" speed="13.89" length="0.10" shape="10500.00,-5248.40 10500.00,-5248.40"/>
    </edge>
    <edge id=":gneJ142_1" function="internal">
        <lane id=":gneJ142_1_0" index="0" speed="13.89" length="0.10" shape="10500.00,-5251.60 10500.00,-5251.60"/>
    </edge>
    <edge id=":gneJ143_0" function="internal">
        <lane id=":gneJ143_0_0" index="0" speed="13.89" length="0.10" shape="12250.00,-5248.40 12250.00,-5248.40"/>
    </edge>
    <edge id=":gneJ143_1" function="internal">
        <lane id=":gneJ143_1_0" index="0" speed="13.89" length="0.10" shape="12250.00,-5251.60 12250.00,-5251.60"/>
    </edge>
    <edge id=":gneJ144_0" function="internal">
        <lane id=":gneJ144_0_0" index="0" speed="6.71" length="9.68" shape="3498.40,-6992.80 3498.00,-6995.25 3496.80,-6997.00 3494.81,-6998.05 3492.01,-6998.40"/>
    </edge>
    <edge id=":gneJ144_1" function="internal">
        <lane id=":gneJ144_1_0" index="0" speed="13.89" length="14.78" shape="3498.40,-6992.80 3498.29,-6996.51 3497.96,-7000.17 3497.43,-7003.81 3496.71,-7007.45"/>
    </edge>
    <edge id=":gneJ144_2" function="internal">
        <lane id=":gneJ144_2_0" index="0" speed="8.00" length="14.19" shape="3498.40,-6992.80 3498.95,-6996.65 3500.60,-6999.40 3503.35,-7001.05 3507.20,-7001.60"/>
    </edge>
    <edge id=":gneJ144_3" function="internal">
        <lane id=":gneJ144_3_0" index="0" speed="6.51" length="9.03" shape="3507.20,-6998.40 3504.75,-6998.05 3503.00,-6997.00 3501.95,-6995.25 3501.60,-6992.80"/>
    </edge>
    <edge id=":gneJ144_4" function="internal">
        <lane id=":gneJ144_4_0" index="0" speed="13.89" length="15.19" shape="3507.20,-6998.40 3492.01,-6998.40"/>
    </edge>
    <edge id=":gneJ144_5" function="internal">
        <lane id=":gneJ144_5_0" index="0" speed="8.99" length="5.99" shape="3507.20,-6998.40 3503.36,-6998.97 3501.52,-7000.00"/>
    </edge>
    <edge id=":gneJ144_12" function="internal">
        <lane id=":gneJ144_12_0" index="0" speed="8.99" length="9.16" shape="3501.52,-7000.00 3500.33,-7000.66 3498.12,-7003.49 3496.71,-7007.45"/>
    </edge>
    <edge id=":gneJ144_6" function="internal">
        <lane id=":gneJ144_6_0" index="0" speed="7.66" length="10.77" shape="3499.83,-7008.15 3500.84,-7005.28 3502.40,-7003.24 3504.52,-7002.01 3507.20,-7001.60"/>
    </edge>
    <edge id=":gneJ144_7" function="internal">
        <lane id=":gneJ144_7_0" index="0" speed="13.89" length="15.48" shape="3499.83,-7008.15 3500.56,-7004.39 3501.12,-7000.52 3501.48,-6996.62 3501.60,-6992.80"/>
    </edge>
    <edge id=":gneJ144_8" function="internal">
        <lane id=":gneJ144_8_0" index="0" speed="7.66" length="15.10" shape="3499.83,-7008.15 3500.15,-7003.88 3498.96,-7000.84 3496.24,-6999.01 3492.01,-6998.40"/>
    </edge>
    <edge id=":gneJ144_9" function="internal">
        <lane id=":gneJ144_9_0" index="0" speed="6.09" length="9.06" shape="3492.01,-7001.60 3494.55,-7001.97 3496.18,-7003.06 3496.90,-7004.89 3496.71,-7007.45"/>
    </edge>
    <edge id=":gneJ144_10" function="internal">
        <lane id=":gneJ144_10_0" index="0" speed="13.89" length="15.19" shape="3492.01,-7001.60 3507.20,-7001.60"/>
    </edge>
    <edge id=":gneJ144_11" function="internal">
        <lane id=":gneJ144_11_0" index="0" speed="8.17" length="6.41" shape="3492.01,-7001.60 3496.21,-7001.05 3498.11,-7000.00"/>
    </edge>
    <edge id=":gneJ144_13" function="internal">
        <lane id=":gneJ144_13_0" index="0" speed="8.17" length="8.43" shape="3498.11,-7000.00 3499.20,-6999.40 3501.00,-6996.65 3501.60,-6992.80"/>
    </edge>
    <edge id=":gneJ145_0" function="internal">
        <lane id=":gneJ145_0_0" index="0" speed="6.51" length="9.03" shape="5248.40,-6992.80 5248.05,-6995.25 5247.00,-6997.00 5245.25,-6998.05 5242.80,-6998.40"/>
    </edge>
    <edge id=":gneJ145_1" function="internal">
        <lane id=":gneJ145_1_0" index="0" speed="13.89" length="14.40" shape="5248.40,-6992.80 5248.40,-7007.20"/>
    </edge>
    <edge id=":gneJ145_2" function="internal">
        <lane id=":gneJ145_2_0" index="0" speed="8.00" length="5.93" shape="5248.40,-6992.80 5248.95,-6996.65 5250.00,-6998.40"/>
    </edge>
    <edge id=":gneJ145_12" function="internal">
        <lane id=":gneJ145_12_0" index="0" speed="8.00" length="8.26" shape="5250.00,-6998.40 5250.60,-6999.40 5253.35,-7001.05 5257.20,-7001.60"/>
    </edge>
    <edge id=":gneJ145_3" function="internal">
        <lane id=":gneJ145_3_0" index="0" speed="6.51" length="9.03" shape="5257.20,-6998.40 5254.75,-6998.05 5253.00,-6997.00 5251.95,-6995.25 5251.60,-6992.80"/>
    </edge>
    <edge id=":gneJ145_4" function="internal">
        <lane id=":gneJ145_4_0" index="0" speed="13.89" length="14.40" shape="5257.20,-6998.40 5242.80,-6998.40"/>
    </edge>
    <edge id=":gneJ145_5" function="internal">
        <lane id=":gneJ145_5_0" index="0" speed="8.00" length="14.19" shape="5257.20,-6998.40 5253.35,-6998.95 5250.60,-7000.60 5248.95,-7003.35 5248.40,-7007.20"/>
    </edge>
    <edge id=":gneJ145_6" function="internal">
        <lane id=":gneJ145_6_0" index="0" speed="6.51" length="9.03" shape="5251.60,-7007.20 5251.95,-7004.75 5253.00,-7003.00 5254.75,-7001.95 5257.20,-7001.60"/>
    </edge>
    <edge id=":gneJ145_7" function="internal">
        <lane id=":gneJ145_7_0" index="0" speed="13.89" length="14.40" shape="5251.60,-7007.20 5251.60,-6992.80"/>
    </edge>
    <edge id=":gneJ145_8" function="internal">
        <lane id=":gneJ145_8_0" index="0" speed="8.00" length="5.93" shape="5251.60,-7007.20 5251.05,-7003.35 5250.00,-7001.60"/>
    </edge>
    <edge id=":gneJ145_13" function="internal">
        <lane id=":gneJ145_13_0" index="0" speed="8.00" length="8.26" shape="5250.00,-7001.60 5249.40,-7000.60 5246.65,-6998.95 5242.80,-6998.40"/>
    </edge>
    <edge id=":gneJ145_9" function="internal">
        <lane id=":gneJ145_9_0" index="0" speed="6.51" length="9.03" shape="5242.80,-7001.60 5245.25,-7001.95 5247.00,-7003.00 5248.05,-7004.75 5248.40,-7007.20"/>
    </edge>
    <edge id=":gneJ145_10" function="internal">
        <lane id=":gneJ145_10_0" index="0" speed="13.89" length="14.40" shape="5242.80,-7001.60 5257.20,-7001.60"/>
    </edge>
    <edge id=":gneJ145_11" function="internal">
        <lane id=":gneJ145_11_0" index="0" speed="8.00" length="14.19" shape="5242.80,-7001.60 5246.65,-7001.05 5249.40,-6999.40 5251.05,-6996.65 5251.60,-6992.80"/>
    </edge>
    <edge id=":gneJ146_0" function="internal">
        <lane id=":gneJ146_0_0" index="0" speed="6.51" length="9.03" shape="6998.40,-6992.80 6998.05,-6995.25 6997.00,-6997.00 6995.25,-6998.05 6992.80,-6998.40"/>
    </edge>
    <edge id=":gneJ146_1" function="internal">
        <lane id=":gneJ146_1_0" index="0" speed="13.89" length="14.40" shape="6998.40,-6992.80 6998.40,-7007.20"/>
    </edge>
    <edge id=":gneJ146_2" function="internal">
        <lane id=":gneJ146_2_0" index="0" speed="8.00" length="5.93" shape="6998.40,-6992.80 6998.95,-6996.65 7000.00,-6998.40"/>
    </edge>
    <edge id=":gneJ146_12" function="internal">
        <lane id=":gneJ146_12_0" index="0" speed="8.00" length="8.26" shape="7000.00,-6998.40 7000.60,-6999.40 7003.35,-7001.05 7007.20,-7001.60"/>
    </edge>
    <edge id=":gneJ146_3" function="internal">
        <lane id=":gneJ146_3_0" index="0" speed="6.51" length="9.03" shape="7007.20,-6998.40 7004.75,-6998.05 7003.00,-6997.00 7001.95,-6995.25 7001.60,-6992.80"/>
    </edge>
    <edge id=":gneJ146_4" function="internal">
        <lane id=":gneJ146_4_0" index="0" speed="13.89" length="14.40" shape="7007.20,-6998.40 6992.80,-6998.40"/>
    </edge>
    <edge id=":gneJ146_5" function="internal">
        <lane id=":gneJ146_5_0" index="0" speed="8.00" length="14.19" shape="7007.20,-6998.40 7003.35,-6998.95 7000.60,-7000.60 6998.95,-7003.35 6998.40,-7007.20"/>
    </edge>
    <edge id=":gneJ146_6" function="internal">
        <lane id=":gneJ146_6_0" index="0" speed="6.51" length="9.03" shape="7001.60,-7007.20 7001.95,-7004.75 7003.00,-7003.00 7004.75,-7001.95 7007.20,-7001.60"/>
    </edge>
    <edge id=":gneJ146_7" function="internal">
        <lane id=":gneJ146_7_0" index="0" speed="13.89" length="14.40" shape="7001.60,-7007.20 7001.60,-6992.80"/>
    </edge>
    <edge id=":gneJ146_8" function="internal">
        <lane id=":gneJ146_8_0" index="0" speed="8.00" length="5.93" shape="7001.60,-7007.20 7001.05,-7003.35 7000.00,-7001.60"/>
    </edge>
    <edge id=":gneJ146_13" function="internal">
        <lane id=":gneJ146_13_0" index="0" speed="8.00" length="8.26" shape="7000.00,-7001.60 6999.40,-7000.60 6996.65,-6998.95 6992.80,-6998.40"/>
    </edge>
    <edge id=":gneJ146_9" function="internal">