<?xml version="1.0" encoding="UTF-8"?>

<!-- generated on 10/08/20 18:07:48 by Eclipse SUMO GUI Version 1.7.0
-->

<configuration xmlns:xsi="http://www.w3.org/2001/XMLSchema-instance" xsi:noNamespaceSchemaLocation="http://sumo.dlr.de/xsd/sumoConfiguration.xsd">

    <input>
        <net-file value="autobahn.net.xml"/>
        <route-files value="autobahn.rou.xml"/>
	<gui-settings-file value="autobahn.view.xml"/>
    </input>

</configuration>
