<?xml version="1.0" encoding="UTF-8"?>

<!-- generated on 11/10/20 14:17:31 by Eclipse SUMO netedit Version 1.7.0
<configuration xmlns:xsi="http://www.w3.org/2001/XMLSchema-instance" xsi:noNamespaceSchemaLocation="http://sumo.dlr.de/xsd/netconvertConfiguration.xsd">

    <output>
        <output-file value="C:\Users\Sandrus\Documents\Research\SUMO\SUMO_DEMOS\Emissions\ThreeEdges_OneCar\threeEdges_OneCar.net.xml"/>
    </output>

    <processing>
        <offset.disable-normalization value="true"/>
    </processing>

    <junctions>
        <no-turnarounds value="true"/>
    </junctions>

    <report>
        <aggregate-warnings value="5"/>
    </report>

</configuration>
-->

<net version="1.6" junctionCornerDetail="5" limitTurnSpeed="5.50" xmlns:xsi="http://www.w3.org/2001/XMLSchema-instance" xsi:noNamespaceSchemaLocation="http://sumo.dlr.de/xsd/net_file.xsd">

    <location netOffset="0.00,0.00" convBoundary="-295.27,-174.86,283.10,-65.86" origBoundary="10000000000.00,10000000000.00,-10000000000.00,-10000000000.00" projParameter="!"/>

    <edge id=":node2_0" function="internal">
        <lane id=":node2_0_0" index="0" speed="5.64" length="13.36" shape="250.89,-176.46 254.01,-175.12 255.31,-172.10 254.63,-168.88 251.84,-166.95"/>
    </edge>
    <edge id=":node2_1" function="internal">
        <lane id=":node2_1_0" index="0" speed="6.17" length="16.43" shape="251.21,-170.09 257.11,-171.47 259.02,-172.46 256.95,-173.06 250.89,-173.26"/>
    </edge>

    <edge id="-edge1" from="node2" to="node1" priority="-1">
        <lane id="-edge1_0" index="0" speed="13.89" length="546.16" shape="250.89,-173.26 -295.27,-173.26"/>
    </edge>
    <edge id="-edge2" from="node3" to="node2" priority="-1">
        <lane id="-edge2_0" index="0" speed="13.89" length="521.64" shape="-260.24,-67.43 251.21,-170.09"/>
    </edge>
    <edge id="edge1" from="node1" to="node2" priority="-1">
        <lane id="edge1_0" index="0" speed="13.89" length="546.16" shape="-295.27,-176.46 250.89,-176.46"/>
    </edge>
    <edge id="edge2" from="node2" to="node3" priority="-1">
        <lane id="edge2_0" index="0" speed="13.89" length="521.64" shape="251.84,-166.95 -259.61,-64.29"/>
    </edge>

    <junction id="node1" type="dead_end" x="-295.27" y="-174.86" incLanes="-edge1_0" intLanes="" shape="-295.27,-174.86 -295.27,-171.66 -295.27,-174.86"/>
    <junction id="node2" type="priority" x="283.10" y="-174.86" incLanes="edge1_0 -edge2_0" intLanes=":node2_0_0 :node2_1_0" shape="250.89,-178.06 250.89,-171.66 252.15,-165.38 269.66,-169.25 280.08,-172.42 283.41,-174.89 279.66,-176.65 268.82,-177.70">
        <request index="0" response="00" foes="00" cont="0"/>
        <request index="1" response="00" foes="00" cont="0"/>
    </junction>
    <junction id="node3" type="dead_end" x="-259.92" y="-65.86" incLanes="edge2_0" intLanes="" shape="-259.92,-65.86 -259.29,-62.73 -259.92,-65.86"/>

    <connection from="-edge2" to="-edge1" fromLane="0" toLane="0" via=":node2_1_0" dir="r" state="M"/>
    <connection from="edge1" to="edge2" fromLane="0" toLane="0" via=":node2_0_0" dir="l" state="M"/>

    <connection from=":node2_0" to="edge2" fromLane="0" toLane="0" dir="l" state="M"/>
    <connection from=":node2_1" to="-edge1" fromLane="0" toLane="0" dir="r" state="M"/>

</net>
