<?xml version="1.0" encoding="UTF-8"?>

<!-- generated on 10/05/20 14:21:45 by Eclipse SUMO polyconvert Version 1.7.0
<configuration xmlns:xsi="http://www.w3.org/2001/XMLSchema-instance" xsi:noNamespaceSchemaLocation="http://sumo.dlr.de/xsd/polyconvertConfiguration.xsd">

    <input>
        <net-file value="osm.net.xml"/>
        <osm-files value="osm_bbox.osm.xml"/>
        <osm.keep-full-type value="true"/>
        <type-file value="C:\Program%20Files%20(x86)\Eclipse\Sumo\data\typemap\osmPolyconvert.typ.xml"/>
    </input>

    <output>
        <output-file value="osm.poly.xml"/>
    </output>

    <processing>
        <poi-layer-offset value="5"/>
    </processing>

    <report>
        <verbose value="true"/>
    </report>

</configuration>
-->

<additional xmlns:xsi="http://www.w3.org/2001/XMLSchema-instance" xsi:noNamespaceSchemaLocation="http://sumo.dlr.de/xsd/additional_file.xsd">
    <location netOffset="-391249.41,-5819108.12" convBoundary="-7816.38,-1289.40,4034.30,3238.00" origBoundary="13.282814,52.498035,13.456602,52.540419" projParameter="+proj=utm +zone=33 +ellps=WGS84 +datum=WGS84 +units=m +no_defs"/>

    <poly id="100950874" type="building.commercial" color="255,230,230" fill="1" layer="-1.00" shape="398.911041,1220.810462 379.581240,1212.269336 375.436371,1201.945625 387.169327,1181.578411 400.524252,1188.805173 398.911041,1220.810462"/>
    <poly id="100950876" type="building.commercial" color="255,230,230" fill="1" layer="-1.00" shape="437.248570,1162.577354 426.095332,1181.240220 423.680021,1185.277327 424.247971,1229.363436 424.316465,1234.914593 425.685520,1238.812351 427.641247,1242.229774 430.278481,1245.465208 435.273956,1249.449670 438.451180,1251.015153 458.263318,1258.666757 490.088451,1191.063995 437.248570,1162.577354"/>
    <poly id="100950877" type="building.commercial" color="255,230,230" fill="1" layer="-1.00" shape="469.098103,1197.670501 449.403627,1239.545177 443.151735,1237.368904 440.475302,1235.736703 438.871583,1232.890126 437.820629,1227.416337 439.529909,1195.753900 464.930749,1195.837574 469.098103,1197.670501"/>
    <poly id="100950878" type="building.commercial" color="255,230,230" fill="1" layer="-1.00" shape="407.883269,1238.872346 413.204207,1225.045426 414.622733,1193.133473 414.543155,1189.229446 413.000572,1184.545470 410.513956,1180.449886 406.561305,1176.664927 402.611743,1174.860616 381.121688,1163.485225 361.867291,1197.616848 360.094102,1203.676128 360.228157,1209.426132 361.919703,1215.931723 368.774200,1223.558211 407.883269,1238.872346"/>
    <poly id="102522991" type="landuse.construction" color="194,194,130" fill="1" layer="-3.00" shape="793.649429,890.316732 709.437013,902.878442 699.503582,903.064200 674.195040,885.696101 637.812819,858.691272 639.456805,850.754405 672.088222,806.525408 678.948639,803.959343 683.680060,803.042632 689.927762,802.548701 693.242176,803.554950 776.870190,860.475283 783.672982,850.677717 881.759753,921.268399 878.588715,925.533331 906.440825,946.251475 894.232249,963.946077 831.564260,916.999594 793.649429,890.316732"/>
    <poly id="109089263" type="building.residential" color="255,230,230" fill="1" layer="-1.00" shape="148.116169,1388.406305 149.836789,1406.005429 151.577055,1405.822175 152.726835,1419.105314 152.064231,1419.220158 150.743694,1426.393379 156.374090,1427.481423 164.457615,1390.747924 163.949315,1390.169431 164.767721,1387.591930 162.440203,1387.921733 161.905137,1387.054516 148.116169,1388.406305"/>
    <poly id="121673258" type="landuse.construction" color="194,194,130" fill="1" layer="-3.00" shape="147.671680,585.046781 147.428636,586.331845 146.932572,587.533498 145.844847,588.993077 144.381751,587.912757 138.751171,596.349931 155.387248,608.188054 132.779807,645.132259 119.254621,641.025675 106.761824,643.984517 102.006516,653.926807 107.967848,687.644776 111.648732,689.554974 111.887658,699.408740 130.710000,700.871855 127.812079,704.574852 141.022771,707.364241 153.609221,711.391544 166.634314,716.221469 190.260893,730.775649 211.059478,742.087707 220.669442,731.270147 334.703076,798.982059 417.953121,662.752069 431.551983,630.915730 358.456327,584.951178 279.221994,534.672571 273.495917,532.373562 266.691308,531.645183 260.339450,534.501000 239.177599,562.288018 179.287710,521.452656 174.343340,519.203200 170.818540,524.644839 182.517461,533.632561 181.476223,535.046591 181.993737,535.424586 177.050954,541.821242 179.113238,543.288885 177.789739,544.831575 175.626740,546.170323 173.140166,546.692801 171.249462,546.534415 169.463503,545.895222 167.898870,544.828273 165.540190,547.751483 143.769712,578.679285 145.241202,579.525739 146.114865,580.352066 146.836170,581.348685 147.548829,583.180066 147.671680,585.046781"/>
    <poly id="121717767" type="leisure.park" color="207,245,201" fill="1" layer="-2.00" shape="78.749378,999.921934 103.582811,1018.744146 105.252651,1016.603981 104.502903,1015.852808 104.016762,1015.051277 103.762773,1014.311361 103.664335,1013.545739 103.703066,1012.843839 103.864165,1012.150353 104.220287,1011.374647 104.734426,1010.684456 105.367109,1010.136295 106.097983,1009.730615 106.852911,1009.491315 107.645216,1009.406973 108.932666,1009.612093 109.638871,1009.930256 110.238497,1010.339804 112.377706,1007.632849 114.913256,1009.635215 115.768472,1008.714907 116.612463,1008.206571 117.563155,1007.918420 118.430830,1007.865791 119.289377,1008.013661 120.200349,1008.382922 120.987102,1008.966362 121.559219,1009.665840 121.964191,1010.480301 122.164887,1011.265911 122.196465,1012.077526 122.071506,1012.870359 121.782486,1013.611192 121.117483,1014.538407 124.350100,1017.059442 122.382845,1019.562280 123.328352,1020.876622 123.539904,1021.539587 123.630074,1022.238627 123.592327,1022.985015 123.418150,1023.701046 123.120373,1024.353052 122.719349,1024.940583 122.134650,1025.509933 121.445224,1025.948075 120.637503,1026.255309 119.784880,1026.374370 119.071278,1026.334560 118.368283,1026.160984 117.469650,1025.735812 115.634884,1028.091056 133.898617,1041.762400 91.783314,1097.266491 103.062176,1105.729183 168.609789,1019.649919 97.679657,973.563437 78.749378,999.921934"/>
    <poly id="125513281" type="building.residential" color="255,230,230" fill="1" layer="-1.00" shape="517.124824,619.821553 508.679709,613.965896 506.763238,612.639556 513.682942,602.916922 513.618927,602.784806 515.765478,599.777436 517.227030,597.719921 518.425291,596.035434 518.555190,596.077074 525.507884,586.309219 537.961813,596.939089 541.608301,600.063272 548.938194,605.832344 549.436299,606.255316 566.892724,618.710950 570.428934,613.770096 574.918943,616.975821 572.317954,620.616345 575.980489,623.239456 578.581479,619.598935 589.140043,627.099429 581.801127,637.209548 578.812603,641.437261 574.022877,648.019292 562.302343,639.543015 562.208335,639.589601 559.336152,637.405273 559.577370,636.954841 563.318243,631.753527 563.835834,630.907526 565.395732,628.692067 566.388824,627.245803 563.740634,625.368096 554.860912,618.887690 550.329444,615.649517 546.722947,620.480662 544.899026,623.035788 540.961985,628.575278 534.417592,623.946132 534.134738,623.740957 538.071775,618.201462 539.895695,615.646334 543.579432,610.624308 537.558696,606.039226 538.046934,605.093723 531.003910,600.019366 527.502390,604.992865 526.040836,607.050378 519.375260,616.600465 517.124824,619.821553"/>
    <poly id="125513288" type="building.residential" color="255,230,230" fill="1" layer="-1.00" shape="511.551395,635.478815 516.578423,638.717130 510.452805,649.045358 513.298506,650.952055 514.268765,649.395008 524.860858,656.260352 529.028677,659.016922 531.923401,658.841689 531.191100,654.885323 543.533041,652.465026 549.548575,651.286142 550.272602,655.175928 552.870227,654.150446 559.630520,643.663596 561.760468,640.211511 562.208335,639.589601 574.022877,648.019292 573.575254,648.652322 571.524910,651.713179 558.309953,672.079216 557.561528,673.230761 560.460493,675.091797 557.085307,680.251655 552.227329,681.282556 541.193722,683.618290 536.166618,684.675199 530.913780,681.352835 533.419373,677.391694 532.404785,676.635180 531.779970,677.850764 491.028973,651.388583 504.321891,631.487993 499.329904,627.992981 505.893799,618.144667 508.679709,613.965896 517.124824,619.821553 519.978552,621.783714 520.227974,622.011881 511.551395,635.478815"/>
    <poly id="125736711" type="building.viaduct" color="255,230,230" fill="1" layer="-1.00" shape="459.008605,1310.171050 501.398948,1326.893307 517.364077,1332.170980 535.370328,1337.058641 553.467197,1340.520034 564.672129,1342.319952 575.315261,1343.575926 586.641266,1344.405118 596.524540,1344.754332 604.532137,1344.688758 611.906609,1344.537029 621.493653,1344.380966 634.190449,1343.355076 645.188698,1341.943868 654.341207,1340.551173 665.797655,1338.373222 676.856377,1335.703334 670.475461,1318.752199 650.980901,1322.999260 633.372277,1325.357581 620.110886,1326.329173 609.347067,1326.678139 598.637673,1326.725481 577.997780,1325.823802 557.861283,1323.130674 547.296612,1321.127454 525.497832,1315.700417 518.179893,1313.191530 509.001929,1310.056111 493.236598,1303.995115 468.679288,1292.920852 459.008605,1310.171050"/>
    <poly id="126128623" type="building.yes" color="255,230,230" fill="1" layer="-1.00" shape="203.506563,1294.062260 209.030509,1304.121589 211.229360,1307.477903 214.029901,1310.420287 216.865601,1312.805513 236.847462,1326.884226 229.294797,1335.842412 228.181874,1334.320337 224.258924,1330.345696 218.470385,1324.576348 202.457907,1308.607045 197.709389,1311.483082 192.588732,1315.023902 186.209716,1305.584439 203.506563,1294.062260"/>
    <poly id="126128623#1" type="tourism.hotel" color="207,245,201" fill="1" layer="-2.00" shape="203.506563,1294.062260 209.030509,1304.121589 211.229360,1307.477903 214.029901,1310.420287 216.865601,1312.805513 236.847462,1326.884226 229.294797,1335.842412 228.181874,1334.320337 224.258924,1330.345696 218.470385,1324.576348 202.457907,1308.607045 197.709389,1311.483082 192.588732,1315.023902 186.209716,1305.584439 203.506563,1294.062260"/>
    <poly id="128565935" type="building.residential" color="255,230,230" fill="1" layer="-1.00" shape="146.410520,1253.655240 147.340320,1253.345302 146.497120,1250.826904 145.492694,1251.138498 144.741387,1248.784977 152.389857,1246.289685 153.992138,1249.369886 162.889015,1266.442665 167.249146,1279.109366 143.364971,1287.105649 142.797823,1285.404574 139.085699,1274.414920 139.017982,1274.115976 152.770159,1269.560234 151.287043,1265.119820 150.350708,1265.441031 146.410520,1253.655240"/>
    <poly id="128565940" type="building.commercial" color="255,230,230" fill="1" layer="-1.00" shape="187.641128,1253.809279 168.273128,1253.048030 165.424070,1247.614159 165.444427,1247.001688 182.692835,1247.676386 182.657555,1247.921976 182.717253,1248.165460 182.864159,1248.362500 183.077427,1248.491303 183.315858,1248.530528 183.484969,1248.504523 187.641128,1253.809279"/>
    <poly id="133885752" type="building.roof" color="255,230,230" fill="1" layer="-1.00" shape="28.903793,1037.727141 27.570690,1036.688484 29.887097,1033.710494 46.208356,1012.762090 47.893888,1014.082248 60.043986,998.478717 58.158245,997.007211 73.837327,977.085775 78.914458,970.652626 84.813020,962.999474 80.840337,960.472630 78.065933,958.720389 75.366898,956.999860 66.843459,951.591806 61.714164,948.333965 52.033853,942.183805 54.234617,939.497714 56.548254,936.697843 98.947475,964.622087 156.983313,1002.860197 178.820575,1017.287042 176.373313,1020.490411 102.248347,1117.386731 90.777695,1108.538830 85.736521,1104.655868 87.742947,1102.085378 89.940939,1099.276958 100.624626,1107.530298 101.542984,1108.233219 135.441078,1063.872152 169.280466,1019.590538 152.604432,1008.643506 114.207539,983.634495 94.378781,970.721233 89.785136,967.740798 51.633423,1017.727002 26.755314,1049.492229 40.459311,1060.170981 42.282493,1061.577103 40.351195,1064.168199 38.222292,1067.030746 20.523324,1053.124660 -13.367872,1026.236184 -9.416852,1021.063113 2.387742,1030.259461 9.246710,1035.604209 10.980477,1036.956667 8.822218,1039.719730 20.350417,1048.699703 22.614267,1045.800770 28.903793,1037.727141"/>
    <poly id="147686950" type="building.residential" color="255,230,230" fill="1" layer="-1.00" shape="360.234794,1443.083449 338.360656,1451.101076 336.788827,1446.629194 358.782248,1438.786962 360.234794,1443.083449"/>
    <poly id="147686951" type="building.apartments" color="255,230,230" fill="1" layer="-1.00" shape="336.788827,1446.629194 338.360656,1451.101076 331.184343,1453.452101 323.973982,1456.104336 316.906716,1458.475223 311.225469,1460.604003 310.069044,1455.889249 312.707632,1454.896098 336.788827,1446.629194"/>
    <poly id="147686953" type="building.residential" color="255,230,230" fill="1" layer="-1.00" shape="412.534148,1508.602684 408.589394,1500.255238 398.201122,1503.756612 399.220395,1506.571597 397.764706,1509.185413 398.725739,1512.435664 412.534148,1508.602684"/>
    <poly id="147686957" type="building.residential" color="255,230,230" fill="1" layer="-1.00" shape="453.244659,1326.678341 445.038515,1323.599443 442.292205,1323.715821 439.262649,1324.528378 433.394432,1328.953428 441.156875,1338.362598 443.170578,1337.038385 448.560154,1337.364289 453.244659,1326.678341"/>
    <poly id="147686963" type="building.residential" color="255,230,230" fill="1" layer="-1.00" shape="382.803415,1430.254556 385.978868,1438.185031 386.680117,1439.816399 375.707685,1443.608933 375.116206,1442.030776 373.972749,1438.205932 360.234794,1443.083449 358.782248,1438.786962 370.183433,1434.740092 382.803415,1430.254556"/>
    <poly id="147686966" type="building.residential" color="255,230,230" fill="1" layer="-1.00" shape="265.406230,1381.611342 267.040428,1381.541755 278.503977,1381.532616 279.988671,1394.630312 279.961658,1407.505560 280.109745,1422.157347 266.621465,1422.678700 266.639733,1407.878568 274.332716,1407.708144 274.013945,1396.075721 267.975981,1396.198352 266.148881,1396.138681 265.406230,1381.611342"/>
    <poly id="153772874" type="building.apartments" color="255,230,230" fill="1" layer="-1.00" shape="1701.806060,1508.355613 1703.102441,1510.842088 1702.466834,1512.502854 1700.923345,1513.304395 1699.245884,1514.186757 1697.586974,1513.744543 1696.269996,1511.247392 1690.391858,1514.324696 1685.199763,1504.390083 1734.634524,1478.528499 1737.326127,1483.677346 1739.826055,1488.440920 1734.679276,1491.134979 1735.883322,1493.434312 1735.246509,1495.351032 1733.656252,1496.186967 1732.172835,1496.942675 1730.408520,1496.335840 1729.197201,1494.014411 1701.806060,1508.355613"/>
    <poly id="154321042" type="building.yes" color="255,230,230" fill="1" layer="-1.00" shape="138.754424,1374.237048 155.160076,1372.738184 150.643090,1359.117997 137.199904,1367.494804 138.754424,1374.237048"/>
    <poly id="159534658" type="waterway.river" color="181,209,209" fill="0" layer="-4.00" shape="708.129862,404.470238 656.151526,419.025696 602.849546,457.557470 564.883369,496.385388 528.135222,537.467866 479.558638,606.330603 458.589172,639.787460 364.529388,799.568216 346.815782,830.694666 316.529106,880.437825 289.024954,931.354738 257.565695,980.812707 219.846528,1029.864372 206.799163,1049.715872 190.534295,1075.069009 167.770072,1099.030693 130.262851,1126.646625 62.829816,1155.505570 23.218752,1170.861893 -24.555499,1190.283402 -99.176436,1219.682644 -188.668308,1235.337373 -206.741143,1237.275064 -280.266379,1247.524311 -367.732195,1260.244047 -402.152585,1258.073433 -517.045345,1247.415995 -538.034253,1244.902144 -595.977631,1234.656207 -620.299972,1224.516781 -691.997925,1158.885100 -760.680792,1098.862107 -797.498722,1066.346978 -824.580019,1042.171449 -863.048135,1015.424470 -921.976625,985.597309 -1017.628152,941.871804 -1112.943915,913.496823 -1151.057734,912.337824 -1197.476450,911.042848 -1224.533385,915.289097 -1245.448560,918.562975 -1266.289757,925.129089 -1286.625529,933.341969 -1310.333942,945.825883 -1329.089849,956.974547 -1347.615265,970.521696 -1365.108959,985.269772 -1384.935740,1007.948821 -1393.808646,1025.407491 -1395.206901,1029.333647 -1400.766134,1044.125043 -1403.543966,1056.428038 -1405.077730,1068.814331 -1405.716863,1077.819922 -1409.256640,1111.772394 -1413.056065,1136.895284 -1419.174992,1165.419810 -1429.955653,1188.874826 -1437.737497,1205.930707 -1444.215734,1214.856268 -1448.387321,1221.014761 -1462.213666,1237.004911 -1481.084665,1257.148028 -1503.095084,1274.413050 -1532.515546,1297.787271 -1564.999110,1317.146793 -1598.696382,1334.141422 -1625.895645,1342.799787 -1654.687441,1348.856930 -1686.947528,1353.712768"/>
    <poly id="15968753" type="building.yes" color="255,230,230" fill="1" layer="-1.00" shape="83.336040,867.368096 55.886310,913.600462 130.303973,957.728461 134.587159,950.689836 135.307563,949.505459 158.111726,912.011584 135.416983,898.427275 121.245486,889.939633 106.937507,881.421675 83.336040,867.368096"/>
    <poly id="15968753#1" type="tourism.museum" color="207,245,201" fill="1" layer="-2.00" shape="83.336040,867.368096 55.886310,913.600462 130.303973,957.728461 134.587159,950.689836 135.307563,949.505459 158.111726,912.011584 135.416983,898.427275 121.245486,889.939633 106.937507,881.421675 83.336040,867.368096"/>
    <poly id="159958500" type="building.commercial" color="255,230,230" fill="1" layer="-1.00" shape="900.544370,1032.964836 933.873527,991.403984 935.831420,992.774081 937.447663,990.958092 956.402091,1007.744062 981.113864,1026.139304 979.199974,1028.618354 945.207880,1072.752826 931.220182,1060.497747 899.143276,1038.693001 902.170309,1034.364485 900.544370,1032.964836"/>
    <poly id="16000014" type="leisure.park" color="207,245,201" fill="1" layer="-2.00" shape="74.888699,862.336675 83.336040,867.368096 106.937507,881.421675 121.245486,889.939633 135.416983,898.427275 158.111726,912.011584 166.297380,916.882031 240.861615,791.201143 149.418599,737.923664 74.888699,862.336675"/>
    <poly id="161907951" type="man_made.bridge" color="255,230,230" fill="1" layer="-1.00" shape="849.581260,1206.987477 841.049429,1214.074560 828.931705,1224.144979 823.886040,1228.339994 827.214839,1230.937248 831.848637,1234.540609 836.327617,1238.203024 839.531102,1240.658389 842.356298,1243.812001 848.295265,1239.497174 862.464181,1229.181317 871.148848,1222.869833 868.673634,1221.121695 863.783524,1217.590712 859.706438,1214.609327 852.341012,1209.018652 849.581260,1206.987477"/>
    <poly id="162018681" type="building.residential" color="255,230,230" fill="1" layer="-1.00" shape="206.859675,1349.492493 208.119978,1352.457887 207.599207,1352.847769 208.252902,1355.392632 216.316624,1355.102626 234.923191,1354.601248 234.721574,1351.935088 234.253231,1351.934339 233.109270,1348.398852 229.931392,1348.335745 227.274226,1344.511093 223.001386,1338.530108 210.770876,1347.425084 209.928909,1348.022383 209.740317,1347.781755 206.859675,1349.492493"/>
    <poly id="165832995" type="leisure.playground" color="207,245,201" fill="1" layer="-2.00" shape="565.231981,1448.765243 571.439076,1448.928557 571.776300,1436.235654 565.569189,1436.072339 565.231981,1448.765243"/>
    <poly id="16603261" type="landuse.grass" color="194,194,130" fill="1" layer="-3.00" shape="697.735587,1070.595428 698.168893,1070.852929 698.790199,1071.017262 699.433981,1070.969676 699.978854,1070.746230 700.432341,1070.380143 716.386386,1049.898397 716.753310,1049.300541 716.907709,1048.607226 716.883100,1048.107028 716.736616,1047.620646 716.482563,1047.181148 716.059144,1046.756513 715.536658,1046.456467 715.024636,1046.323103 672.273021,1043.750068 671.493793,1043.811775 670.760180,1044.095026 670.212693,1044.507701 669.783487,1045.051297 669.480819,1045.792397 669.403264,1046.584166 669.540848,1047.282167 669.846569,1047.909692 670.313153,1048.444646 697.735587,1070.595428"/>
    <poly id="166695111" type="building.residential" color="255,230,230" fill="1" layer="-1.00" shape="764.898206,1521.138316 760.664685,1506.131558 788.591003,1498.627788 790.438254,1506.376362 779.289964,1508.970088 779.020080,1508.119215 775.494394,1508.897995 774.992384,1507.061887 773.480419,1507.440183 773.804902,1508.612550 774.339762,1509.168263 776.722877,1518.440622 764.898206,1521.138316"/>
    <poly id="166695113" type="building.residential" color="255,230,230" fill="1" layer="-1.00" shape="785.665764,1486.930438 784.544296,1482.548645 781.782263,1471.481970 787.415952,1470.267252 789.648588,1480.410886 792.440418,1479.592658 792.733838,1478.740493 797.813862,1477.348826 798.213536,1477.006187 795.744381,1465.677115 796.121579,1465.546395 808.318615,1462.184047 808.617673,1463.434870 809.671050,1463.189098 810.434593,1466.421518 809.374678,1466.678562 811.231631,1474.560460 812.285005,1474.314689 813.048544,1477.547109 811.995170,1477.792880 812.287689,1479.054976 795.248189,1484.115316 785.665764,1486.930438"/>
    <poly id="166695114" type="building.residential" color="255,230,230" fill="1" layer="-1.00" shape="788.591003,1498.627788 787.079263,1492.552080 796.711862,1489.858258 795.248189,1484.115316 812.287689,1479.054976 812.729122,1480.914677 813.483185,1482.177726 814.090701,1483.566409 814.537611,1485.058780 814.795064,1486.577583 814.869109,1488.089301 814.758765,1489.549445 815.192677,1491.375930 800.654236,1495.357387 788.591003,1498.627788"/>
    <poly id="16872940" type="leisure.park" color="207,245,201" fill="1" layer="-2.00" shape="457.028917,798.256535 458.618281,817.027017 466.274255,834.483845 493.862939,847.783445 509.584383,848.415199 520.681426,844.052757 551.307523,852.589714 567.258274,854.384982 584.203873,834.837889 561.898070,819.151061 563.987485,803.726592 562.843241,783.577565 568.347233,770.002748 588.360971,776.871549 602.043487,782.300109 609.477161,784.483890 615.388189,784.420147 621.303883,784.567731 625.278193,786.560848 629.782965,789.521485 634.016808,791.586772 638.541746,793.923827 519.607174,934.588271 503.679176,933.504829 447.292512,892.700253 400.173262,854.473165 385.242802,844.799782 375.274872,835.150163 372.626813,831.436504 371.912107,823.985702 382.704367,804.930138 382.330642,803.992562 400.701478,770.648450 399.361708,769.921413 401.292757,766.384630 402.625743,767.111818 409.123377,755.206221 460.914384,668.812432 467.472343,659.008703 561.188371,719.107545 535.550576,752.344499 514.274534,744.268641 477.876434,749.490776 457.028917,798.256535"/>
    <poly id="16873207" type="leisure.park" color="207,245,201" fill="1" layer="-2.00" shape="146.361676,975.677280 185.929199,1001.751094 197.911433,1004.890542 205.376579,999.005490 246.761889,962.847286 250.895332,956.702294 182.349038,917.104813 146.361676,975.677280"/>
    <poly id="170013760" type="building.yes" color="255,230,230" fill="1" layer="-1.00" shape="276.426035,1366.778920 287.258972,1366.182882 287.110007,1360.989586 274.106207,1351.830286 269.648814,1353.753957 270.062622,1354.356809 274.883812,1359.357583 276.426035,1366.778920"/>
    <poly id="170063224" type="building.train_station" color="255,230,230" fill="1" layer="-1.00" shape="446.796342,1282.777917 439.853338,1279.426282 432.146463,1275.601938 430.035798,1274.691651 427.965345,1273.758220 407.672349,1264.926725 366.862876,1249.750381 336.220392,1240.380438 318.910860,1235.411297 316.577127,1234.850953 315.247071,1234.557703 313.896663,1234.264904 300.061999,1231.121707 270.955661,1227.070526 245.650807,1226.106655 231.399096,1225.587879 230.871617,1227.513517 229.744134,1231.154977 228.235716,1236.596425 227.013741,1240.874253 226.238936,1243.584306 256.500255,1247.687525 277.660312,1250.601566 308.126157,1258.428318 309.519234,1258.809191 310.647484,1259.184801 400.841081,1292.396127 402.226116,1288.426312 418.892180,1294.389201 420.972750,1295.166618 423.053320,1295.944035 437.689273,1302.185576 446.796342,1282.777917"/>
    <poly id="170063225" type="building.train_station" color="255,230,230" fill="1" layer="-1.00" shape="305.451220,1241.540206 301.387132,1259.389870 336.103608,1269.136758 369.712100,1280.043425 399.449916,1291.180617 406.284392,1274.593935 356.912566,1256.502518 328.593595,1247.537427 305.451220,1241.540206"/>
    <poly id="170108655" type="building.commercial" color="255,230,230" fill="1" layer="-1.00" shape="204.438138,1248.818975 203.339908,1252.860387 203.688119,1252.952817 200.883905,1262.707130 199.246012,1268.429649 190.426657,1257.297238 189.610460,1257.526756 189.382645,1256.741746 188.001765,1256.605444 188.633325,1255.089214 187.641128,1253.809279 183.484969,1248.504523 183.766452,1248.342496 185.212936,1250.213251 185.399441,1250.053330 186.326299,1248.385895 186.367997,1247.817462 200.274153,1248.366020 200.266009,1248.611008 204.438138,1248.818975"/>
    <poly id="170108656" type="building.residential" color="255,230,230" fill="1" layer="-1.00" shape="153.992138,1249.369886 160.997725,1246.043165 168.568982,1260.574869 167.943966,1262.079828 168.892000,1264.428991 173.722935,1262.819649 173.533724,1262.245208 174.411361,1260.500968 181.560019,1258.116951 183.310195,1258.990615 183.499405,1259.565056 189.610460,1257.526756 190.426657,1257.297238 199.246012,1268.429649 183.250954,1273.769406 167.249146,1279.109366 162.889015,1266.442665 153.992138,1249.369886"/>
    <poly id="170131442" type="landuse.grass" color="194,194,130" fill="1" layer="-3.00" shape="391.441710,1158.093659 400.401008,1162.680296 404.366675,1154.780983 401.626526,1153.339381 401.483985,1152.418944 401.087824,1151.693287 400.203440,1150.989560 399.200244,1150.744693 398.239828,1150.899474 397.509199,1151.316233 395.497778,1150.292487 391.441710,1158.093659"/>
    <poly id="170852439" type="landuse.village_green" color="242,242,204" fill="1" layer="-3.00" shape="321.497334,1195.272389 339.519899,1204.543269 371.693368,1142.306621 353.904021,1133.152859 348.202230,1144.184117 345.970990,1143.042854 324.439646,1184.691656 326.437501,1185.715673 321.497334,1195.272389"/>
    <poly id="170852439#1" type="leisure.park" color="207,245,201" fill="1" layer="-2.00" shape="321.497334,1195.272389 339.519899,1204.543269 371.693368,1142.306621 353.904021,1133.152859 348.202230,1144.184117 345.970990,1143.042854 324.439646,1184.691656 326.437501,1185.715673 321.497334,1195.272389"/>
    <poly id="170855131" type="building.commercial" color="255,230,230" fill="1" layer="-1.00" shape="398.214870,986.556534 446.127200,1024.788284 487.517116,973.420650 454.997382,947.366645 430.594840,927.720846 398.214870,986.556534"/>
    <poly id="170855133" type="building.office" color="255,230,230" fill="1" layer="-1.00" shape="383.114021,1013.952966 394.363834,993.507463 419.990193,1014.172001 418.081636,1016.573268 408.835815,1028.194710 383.114021,1013.952966"/>
    <poly id="170860163" type="building.yes" color="255,230,230" fill="1" layer="-1.00" shape="567.396483,1117.226564 569.318186,1115.726399 569.960408,1113.764885 573.884059,1110.095131 577.671460,1112.548562 588.140557,1124.034674 587.844119,1126.901010 582.092335,1131.390063 579.403536,1131.349304 568.956506,1119.940616 567.396483,1117.226564"/>
    <poly id="170860164" type="building.yes" color="255,230,230" fill="1" layer="-1.00" shape="550.314657,1133.015646 552.351436,1131.501805 552.629508,1129.648482 557.439230,1125.224717 559.487195,1126.982141 566.930443,1135.152272 567.865996,1134.486205 568.893660,1135.531751 568.140887,1136.483098 570.151331,1138.386014 569.938283,1141.339530 564.706902,1146.340105 562.237078,1146.071967 560.244188,1143.734690 559.418661,1144.465094 558.367695,1143.286533 558.826379,1142.541978 551.120259,1134.455561 550.314657,1133.015646"/>
    <poly id="171826988" type="landuse.grass" color="194,194,130" fill="1" layer="-3.00" shape="789.256427,1229.882244 799.392430,1217.362833 794.358736,1212.555412 790.793845,1212.489342 789.468799,1214.577154 790.352701,1217.417453 789.030599,1219.638731 789.796962,1223.305061 788.342121,1225.662797 788.272641,1228.668772 789.256427,1229.882244"/>
    <poly id="171826989" type="landuse.grass" color="194,194,130" fill="1" layer="-3.00" shape="600.239708,1036.905559 603.131849,1039.389908 601.151288,1041.915095 606.178528,1045.798883 611.574207,1048.539526 671.857977,1095.992070 729.750772,1141.572986 786.343762,1186.126088 791.989813,1178.991249 617.226965,1041.404336 613.749284,1037.608726 609.906895,1034.511081 607.453718,1032.540031 605.850288,1034.622912 604.078440,1033.382367 603.132270,1032.646585 600.239708,1036.905559"/>
    <poly id="171826996" type="landuse.grass" color="194,194,130" fill="1" layer="-3.00" shape="502.984159,996.034978 495.214511,990.309092 446.175288,1054.586916 443.129450,1052.829349 399.821298,1109.480944 410.448460,1114.898653 502.984159,996.034978"/>
    <poly id="171829341" type="landuse.grass" color="194,194,130" fill="1" layer="-3.00" shape="600.692682,1026.680436 546.686906,984.486890 544.604444,985.779189 542.891551,985.672376 541.102192,988.249001 550.651676,995.270945 592.251046,1029.860180 592.575938,1031.355228 595.297552,1033.186812 600.692682,1026.680436"/>
    <poly id="171829342" type="landuse.grass" color="194,194,130" fill="1" layer="-3.00" shape="864.023505,1247.585337 869.269248,1240.147835 858.647758,1231.869248 851.290212,1237.417095 864.023505,1247.585337"/>
    <poly id="173194947" type="amenity.shelter" color="237,199,199" fill="1" layer="-1.00" shape="1002.307427,1126.199266 1003.408646,1127.198772 1012.144100,1117.626062 1011.042881,1116.626554 1002.307427,1126.199266"/>
    <poly id="173194949" type="amenity.shelter" color="237,199,199" fill="1" layer="-1.00" shape="995.753647,1120.167674 1004.556699,1110.582335 1003.822388,1109.908583 995.019337,1119.493923 995.753647,1120.167674"/>
    <poly id="173194950" type="amenity.shelter" color="237,199,199" fill="1" layer="-1.00" shape="952.807618,1333.504482 953.438635,1332.878575 950.786906,1330.199570 950.155889,1330.825476 952.807618,1333.504482"/>