<?xml version="1.0" encoding="UTF-8"?>

<!-- generated on 10/05/20 14:21:46 by Eclipse SUMO duarouter Version 1.7.0
<configuration xmlns:xsi="http://www.w3.org/2001/XMLSchema-instance" xsi:noNamespaceSchemaLocation="http://sumo.dlr.de/xsd/duarouterConfiguration.xsd">

    <input>
        <net-file value="C:\Users\Sandrus\Sumo\2020-10-05-14-21-32\osm.net.xml"/>
        <route-files value="C:\Users\Sandrus\Sumo\2020-10-05-14-21-32\osm.passenger.trips.xml"/>
    </input>

    <output>
        <output-file value="C:\Users\Sandrus\Sumo\2020-10-05-14-21-32\osm.passenger.trips.xml.tmp"/>
        <write-trips value="true"/>
    </output>

    <time>
        <begin value="0"/>
        <end value="3600"/>
    </time>

    <report>
        <no-warnings value="true"/>
        <ignore-errors value="true"/>
        <no-step-log value="true"/>
    </report>

</configuration>
-->

<routes xmlns:xsi="http://www.w3.org/2001/XMLSchema-instance" xsi:noNamespaceSchemaLocation="http://sumo.dlr.de/xsd/routes_file.xsd">
    <vType id="veh_passenger" vClass="passenger"/>
    <trip id="veh0" type="veh_passenger" depart="0.00" departLane="best" from="305093328#1" to="-168942727#1"/>
    <trip id="veh1" type="veh_passenger" depart="6.42" departLane="best" from="11103418" to="100405009#2"/>
    <trip id="veh2" type="veh_passenger" depart="12.85" departLane="best" from="415280722" to="312357351"/>
    <trip id="veh3" type="veh_passenger" depart="19.27" departLane="best" from="202156995#0" to="-168943639#5"/>
    <trip id="veh5" type="veh_passenger" depart="32.12" departLane="best" from="-168943642#2" to="-62363401"/>
    <trip id="veh6" type="veh_passenger" depart="38.54" departLane="best" from="30721662#2" to="29177662#1"/>
    <trip id="veh9" type="veh_passenger" depart="57.81" departLane="best" from="4615496#2" to="316092515"/>
    <trip id="veh11" type="veh_passenger" depart="70.66" departLane="best" from="740538839#1" to="189133036#1"/>
    <trip id="veh14" type="veh_passenger" depart="89.93" departLane="best" from="4615496#3" to="415280722"/>
    <trip id="veh15" type="veh_passenger" depart="96.35" departLane="best" from="286837510#2" to="82654059#2"/>
    <trip id="veh16" type="veh_passenger" depart="102.77" departLane="best" from="19002363#1" to="293931248#1"/>
    <trip id="veh17" type="veh_passenger" depart="109.20" departLane="best" from="4615599#1" to="301733776"/>
    <trip id="veh19" type="veh_passenger" depart="122.04" departLane="best" from="-628330888" to="165450001#1"/>
    <trip id="veh20" type="veh_passenger" depart="128.47" departLane="best" departSpeed="max" from="-23813206#2" to="103360642#2"/>
    <trip id="veh21" type="veh_passenger" depart="134.89" departLane="best" from="-29054704#3" to="139877314#1"/>
    <trip id="veh22" type="veh_passenger" depart="141.32" departLane="best" from="189133035#0" to="-751595930"/>
    <trip id="veh23" type="veh_passenger" depart="147.74" departLane="best" from="100405009#4" to="738290009#1"/>
    <trip id="veh24" type="veh_passenger" depart="154.16" departLane="best" from="30721662#0" to="301241483#3"/>
    <trip id="veh26" type="veh_passenger" depart="167.01" departLane="best" departSpeed="max" from="-4613293" to="202156991#2"/>
    <trip id="veh28" type="veh_passenger" depart="179.86" departLane="best" from="288584452#1" to="312533961#0"/>
    <trip id="veh30" type="veh_passenger" depart="192.70" departLane="best" from="168942727#0" to="112128419#2"/>
    <trip id="veh31" type="veh_passenger" depart="199.13" departLane="best" departSpeed="max" from="-4790825#2" to="749876417"/>
    <trip id="veh33" type="veh_passenger" depart="211.97" departLane="best" from="309147331#0" to="23013165#1"/>
    <trip id="veh34" type="veh_passenger" depart="218.40" departLane="best" from="606078065" to="246044848"/>
    <trip id="veh35" type="veh_passenger" depart="224.82" departLane="best" from="288585010" to="112128418#3"/>
    <trip id="veh36" type="veh_passenger" depart="231.24" departLane="best" from="29177662#1" to="606078071#0"/>
    <trip id="veh37" type="veh_passenger" depart="237.67" departLane="best" from="84960595" to="287764737"/>
    <trip id="veh38" type="veh_passenger" depart="244.09" departLane="best" from="-25294729#0" to="-202156991#0"/>
    <trip id="veh39" type="veh_passenger" depart="250.51" departLane="best" from="-310176513#3" to="305093328#0"/>
    <trip id="veh41" type="veh_passenger" depart="263.36" departLane="best" from="-23386522#8" to="202156991#2"/>
    <trip id="veh43" type="veh_passenger" depart="276.21" departLane="best" from="780281639#0" to="534588621#1"/>
    <trip id="veh44" type="veh_passenger" depart="282.63" departLane="best" from="-136571494#2" to="370359204#0"/>
    <trip id="veh46" type="veh_passenger" depart="295.48" departLane="best" from="100405009#4" to="30721662#1"/>
    <trip id="veh47" type="veh_passenger" depart="301.90" departLane="best" from="-310176513#5" to="24241762#0"/>
    <trip id="veh48" type="veh_passenger" depart="308.32" departLane="best" from="234463931#3" to="819027709#0"/>
    <trip id="veh49" type="veh_passenger" depart="314.75" departLane="best" from="54048862#0" to="112128418#3"/>
    <trip id="veh50" type="veh_passenger" depart="321.17" departLane="best" from="24993933#1" to="-4615599#1"/>
    <trip id="veh51" type="veh_passenger" depart="327.59" departLane="best" from="60333311#2" to="54048863"/>
    <trip id="veh52" type="veh_passenger" depart="334.02" departLane="best" from="156364556#1" to="30721660#3"/>
    <trip id="veh53" type="veh_passenger" depart="340.44" departLane="best" from="4611726" to="29054704#3"/>
    <trip id="veh54" type="veh_passenger" depart="346.86" departLane="best" from="-109819340#0" to="188046016#0"/>
    <trip id="veh55" type="veh_passenger" depart="353.29" departLane="best" from="-168942727#0" to="728838409#2"/>
    <trip id="veh56" type="veh_passenger" depart="359.71" departLane="best" from="54048862#1" to="4773465#1"/>
    <trip id="veh57" type="veh_passenger" depart="366.13" departLane="best" departSpeed="max" from="15971196" to="-23386522#3"/>
    <trip id="veh58" type="veh_passenger" depart="372.56" departLane="best" from="54048862#1" to="749876418#1"/>
    <trip id="veh59" type="veh_passenger" depart="378.98" departLane="best" from="-24241790#2" to="280667874"/>
    <trip id="veh61" type="veh_passenger" depart="391.83" departLane="best" from="24913519#1" to="293931248#0"/>
    <trip id="veh62" type="veh_passenger" depart="398.25" departLane="best" from="100405009#4" to="54048863"/>
    <trip id="veh63" type="veh_passenger" depart="404.67" departLane="best" from="202156995#0" to="-82652406#0"/>
    <trip id="veh64" type="veh_passenger" depart="411.10" departLane="best" from="286837510#3" to="415280722"/>
    <trip id="veh66" type="veh_passenger" depart="423.95" departLane="best" from="831694400" to="309155392"/>
    <trip id="veh67" type="veh_passenger" depart="430.37" departLane="best" from="23121445#3" to="288584452#1"/>
    <trip id="veh68" type="veh_passenger" depart="436.79" departLane="best" departSpeed="max" from="-738177360#1" to="100405009#1"/>
    <trip id="veh69" type="veh_passenger" depart="443.22" departLane="best" from="-234463931#5" to="305093328#1"/>
    <trip id="veh77" type="veh_passenger" depart="494.60" departLane="best" from="-28016312#0" to="23813206#2"/>
    <trip id="veh78" type="veh_passenger" depart="501.03" departLane="best" from="202156995#1" to="24914992#1"/>
    <trip id="veh79" type="veh_passenger" depart="507.45" departLane="best" from="370359204#1" to="312176585#2"/>
    <trip id="veh80" type="veh_passenger" depart="513.87" departLane="best" from="195407521" to="19002357#1"/>
    <trip id="veh82" type="veh_passenger" depart="526.72" departLane="best" from="-4615497#7" to="246044841"/>
    <trip id="veh83" type="veh_passenger" depart="533.14" departLane="best" from="202156995#0" to="139877314#1"/>
    <trip id="veh84" type="veh_passenger" depart="539.57" departLane="best" departSpeed="max" from="-82658674#5" to="728838409#0"/>
    <trip id="veh86" type="veh_passenger" depart="552.41" departLane="best" from="287764737" to="-23121445#2"/>
    <trip id="veh89" type="veh_passenger" depart="571.68" departLane="best" from="195407521" to="-23386522#3"/>
    <trip id="veh92" type="veh_passenger" depart="590.95" departLane="best" from="234463931#5" to="23809670#1"/>
    <trip id="veh93" type="veh_passenger" depart="597.38" departLane="best" from="740538839#1" to="83517332#1"/>
    <trip id="veh94" type="veh_passenger" depart="603.80" departLane="best" from="288406367" to="344594962"/>
    <trip id="veh95" type="veh_passenger" depart="610.22" departLane="best" from="-4612968#1" to="168943642#1"/>
    <trip id="veh97" type="veh_passenger" depart="623.07" departLane="best" from="287638448#0" to="4610362#4"/>
    <trip id="veh100" type="veh_passenger" depart="642.34" departLane="best" from="296598505" to="312176585#2"/>
    <trip id="veh102" type="veh_passenger" depart="655.19" departLane="best" from="294104504#1" to="301733776"/>
    <trip id="veh104" type="veh_passenger" depart="668.03" departLane="best" departSpeed="max" from="286837510#0" to="738177360#1"/>
    <trip id="veh106" type="veh_passenger" depart="680.88" departLane="best" from="-743631784" to="23013165#1"/>
    <trip id="veh107" type="veh_passenger" depart="687.30" departLane="best" departSpeed="max" from="310177222#0" to="168943642#5"/>
    <trip id="veh108" type="veh_passenger" depart="693.73" departLane="best" from="168942727#1" to="4611698#1"/>
    <trip id="veh109" type="veh_passenger" depart="700.15" departLane="best" from="-23809670#2" to="246044848"/>
    <trip id="veh111" type="veh_passenger" depart="713.00" departLane="best" from="100405009#4" to="738177360#1"/>
    <trip id="veh112" type="veh_passenger" depart="719.42" departLane="best" from="188914559" to="-4615496#2"/>
    <trip id="veh113" type="veh_passenger" depart="725.85" departLane="best" from="47016365#1" to="31912630#0"/>
    <trip id="veh115" type="veh_passenger" depart="738.69" departLane="best" from="310176513#0" to="740538839#1"/>
    <trip id="veh116" type="veh_passenger" depart="745.12" departLane="best" from="-310176513#1" to="294104504#1"/>
    <trip id="veh117" type="veh_passenger" depart="751.54" departLane="best" from="305093247#2" to="112128418#3"/>
    <trip id="veh118" type="veh_passenger" depart="757.96" departLane="best" departSpeed="max" from="24914141#0" to="61583424#0"/>
    <trip id="veh119" type="veh_passenger" depart="764.39" departLane="best" from="202156995#1" to="136571494#5"/>
    <trip id="veh120" type="veh_passenger" depart="770.81" departLane="best" departSpeed="max" from="-109819340#3" to="4613293"/>
    <trip id="veh121" type="veh_passenger" depart="777.23" departLane="best" from="305093328#0" to="112128418#3"/>
    <trip id="veh122" type="veh_passenger" depart="783.66" departLane="best" from="43087121#2" to="293931248#1"/>
    <trip id="veh123" type="veh_passenger" depart="790.08" departLane="best" from="202157002#2" to="-128396190#3"/>
    <trip id="veh125" type="veh_passenger" depart="802.93" departLane="best" departSpeed="max" from="60333311#0" to="29290632#0"/>
    <trip id="veh128" type="veh_passenger" depart="822.20" departLane="best" departSpeed="max" from="15971196" to="606078071#0"/>
    <trip id="veh130" type="veh_passenger" depart="835.04" departLane="best" departSpeed="max" from="-82658674#5" to="-310177222#0"/>
    <trip id="veh131" type="veh_passenger" depart="841.47" departLane="best" from="4612973#1" to="55741054"/>
    <trip id="veh132" type="veh_passenger" depart="847.89" departLane="best" from="-4612968#1" to="728838409#2"/>
    <trip id="veh133" type="veh_passenger" depart="854.31" departLane="best" from="490365295#0" to="82654059#2"/>
    <trip id="veh134" type="veh_passenger" depart="860.74" departLane="best" from="4615497#2" to="541763975"/>
    <trip id="veh136" type="veh_passenger" depart="873.58" departLane="best" from="171826985#3" to="728838409#2"/>
    <trip id="veh138" type="veh_passenger" depart="886.43" departLane="best" from="4615497#2" to="112128419#1"/>
    <trip id="veh141" type="veh_passenger" depart="905.70" departLane="best" from="23809678#1" to="171826985#1"/>
    <trip id="veh143" type="veh_passenger" depart="918.55" departLane="best" from="-168943639#1" to="-55741054"/>
    <trip id="veh145" type="veh_passenger" depart="931.39" departLane="best" from="751595929#1" to="139877314#1"/>
    <trip id="veh146" type="veh_passenger" depart="937.82" departLane="best" from="307098733#1" to="23013165#2"/>
    <trip id="veh148" type="veh_passenger" depart="950.66" departLane="best" from="66311464#1" to="-36892597"/>
    <trip id="veh149" type="veh_passenger" depart="957.09" departLane="best" from="77348147" to="-4615599#1"/>
    <trip id="veh150" type="veh_passenger" depart="963.51" departLane="best" from="749876418#0" to="112128419#1"/>
    <trip id="veh151" type="veh_passenger" depart="969.93" departLane="best" from="-310176513#2" to="24241762#0"/>
    <trip id="veh155" type="veh_passenger" depart="995.63" departLane="best" from="-84960597#0" to="31912630#5"/>
    <trip id="veh156" type="veh_passenger" depart="1002.05" departLane="best" from="286837510#3" to="36892597"/>
    <trip id="veh157" type="veh_passenger" depart="1008.48" departLane="best" from="188046016#0" to="-234463931#5"/>
    <trip id="veh158" type="veh_passenger" depart="1014.90" departLane="best" from="165450001#1" to="48303485#3"/>
    <trip id="veh160" type="veh_passenger" depart="1027.75" departLane="best" departSpeed="max" from="15971196" to="23386522#13"/>
    <trip id="veh161" type="veh_passenger" depart="1034.17" departLane="best" from="-31912630#1" to="234463931#4"/>
    <trip id="veh163" type="veh_passenger" depart="1047.02" departLane="best" departSpeed="max" from="60333311#0" to="301241681#4"/>
    <trip id="veh164" type="veh_passenger" depart="1053.44" departLane="best" from="156364570#2" to="293931248#0"/>
    <trip id="veh166" type="veh_passenger" depart="1066.29" departLane="best" from="309147331#0" to="24913519#2"/>
    <trip id="veh168" type="veh_passenger" depart="1079.13" departLane="best" from="246052428" to="61583423#0"/>
    <trip id="veh170" type="veh_passenger" depart="1091.98" departLane="best" departSpeed="max" from="-24241762#2" to="288406367"/>
    <trip id="veh171" type="veh_passenger" depart="1098.40" departLane="best" from="305093247#2" to="189133036#0"/>
    <trip id="veh172" type="veh_passenger" depart="1104.83" departLane="best" from="4615536#3" to="4611698#1"/>
    <trip id="veh173" type="veh_passenger" depart="1111.25" departLane="best" departSpeed="max" from="310177222#0" to="100405009#3"/>
    <trip id="veh174" type="veh_passenger" depart="1117.67" departLane="best" departSpeed="max" from="-4615536#4" to="-168942727#0"/>
    <trip id="veh175" type="veh_passenger" depart="1124.10" departLane="best" from="-82652406#0" to="25294729#1"/>
    <trip id="veh177" type="veh_passenger" depart="1136.94" departLane="best" from="-4615536#3" to="313195075"/>
    <trip id="veh180" type="veh_passenger" depart="1156.21" departLane="best" from="4610351#1" to="4613293"/>
    <trip id="veh181" type="veh_passenger" depart="1162.64" departLane="best" from="-310176513#0" to="23809670#3"/>
    <trip id="veh183" type="veh_passenger" depart="1175.48" departLane="best" from="28679067#2" to="-23121445#1"/>
    <trip id="veh184" type="veh_passenger" depart="1181.91" departLane="best" departSpeed="max" from="-82658674#5" to="48303485#3"/>
    <trip id="veh185" type="veh_passenger" depart="1188.33" departLane="best" from="234463931#6" to="4615497#1"/>
    <trip id="veh186" type="veh_passenger" depart="1194.75" departLane="best" from="310176513#4" to="82659290#0"/>
    <trip id="veh187" type="veh_passenger" depart="1201.18" departLane="best" from="296598505" to="756306892"/>
    <trip id="veh188" type="veh_passenger" depart="1207.60" departLane="best" from="54698846#1" to="301241681#3"/>
    <trip id="veh189" type="veh_passenger" depart="1214.02" departLane="best" from="328920970" to="287638448#0"/>
    <trip id="veh190" type="veh_passenger" depart="1220.45" departLane="best" from="4615599#2" to="293931248#0"/>
    <trip id="veh192" type="veh_passenger" depart="1233.29" departLane="best" from="24913519#1" to="112128418#3"/>
    <trip id="veh193" type="veh_passenger" depart="1239.72" departLane="best" from="-82658674#1" to="30721660#2"/>
    <trip id="veh194" type="veh_passenger" depart="1246.14" departLane="best" departSpeed="max" from="4612968#0" to="288585010"/>
    <trip id="veh195" type="veh_passenger" depart="1252.56" departLane="best" from="301733776" to="136571494#3"/>
    <trip id="veh196" type="veh_passenger" depart="1258.99" departLane="best" departSpeed="max" from="-23813206#2" to="156364570#2"/>
    <trip id="veh199" type="veh_passenger" depart="1278.26" departLane="best" departSpeed="max" from="-738177360#1" to="313039168#1"/>
    <trip id="veh200" type="veh_passenger" depart="1284.68" departLane="best" from="19801618#1" to="29054704#6"/>
    <trip id="veh201" type="veh_passenger" depart="1291.11" departLane="best" from="202156991#0" to="-751595929#0"/>
    <trip id="veh202" type="veh_passenger" depart="1297.53" departLane="best" from="48303485#3" to="4612981#1"/>
    <trip id="veh204" type="veh_passenger" depart="1310.38" departLane="best" from="187103792#1" to="4611726"/>
    <trip id="veh205" type="veh_passenger" depart="1316.80" departLane="best" from="48303485#0" to="819027709#0"/>
    <trip id="veh206" type="veh_passenger" depart="1323.22" departLane="best" from="202156994#0" to="4610362#4"/>
    <trip id="veh208" type="veh_passenger" depart="1336.07" departLane="best" from="-534588621#1" to="100405009#1"/>
    <trip id="veh209" type="veh_passenger" depart="1342.49" departLane="best" from="23121445#1" to="-168943639#2"/>
    <trip id="veh210" type="veh_passenger" depart="1348.92" departLane="best" from="187103791" to="312357351"/>
    <trip id="veh211" type="veh_passenger" depart="1355.34" departLane="best" from="19801548#2" to="-4615497#5"/>
    <trip id="veh213" type="veh_passenger" depart="1368.19" departLane="best" from="301241681#3" to="-168942727#3"/>
    <trip id="veh214" type="veh_passenger" depart="1374.61" departLane="best" from="195401013#2" to="298473729"/>
    <trip id="veh215" type="veh_passenger" depart="1381.03" departLane="best" from="-168943642#3" to="30721662#2"/>
    <trip id="veh216" type="veh_passenger" depart="1387.46" departLane="best" from="-370359204#1" to="246052428"/>
    <trip id="veh217" type="veh_passenger" depart="1393.88" departLane="best" departSpeed="max" from="-4790825#2" to="188046016#0"/>
    <trip id="veh218" type="veh_passenger" depart="1400.30" departLane="best" from="4611726" to="202156991#2"/>
    <trip id="veh219" type="veh_passenger" depart="1406.73" departLane="best" from="4610362#0" to="4773465#1"/>
    <trip id="veh220" type="veh_passenger" depart="1413.15" departLane="best" departSpeed="max" from="-82658674#5" to="-24993933#0"/>
    <trip id="veh221" type="veh_passenger" depart="1419.57" departLane="best" from="-168942727#0" to="29054704#3"/>
    <trip id="veh223" type="veh_passenger" depart="1432.42" departLane="best" from="30826268#1" to="4611726"/>
    <trip id="veh227" type="veh_passenger" depart="1458.11" departLane="best" from="289830064" to="-84960597#1"/>
    <trip id="veh228" type="veh_passenger" depart="1464.54" departLane="best" departSpeed="max" from="312534044" to="4613293"/>
    <trip id="veh230" type="veh_passenger" depart="1477.38" departLane="best" departSpeed="max" from="454285423#0" to="-328920970"/>
    <trip id="veh231" type="veh_passenger" depart="1483.81" departLane="best" from="4615546#0" to="82649618"/>
    <trip id="veh232" type="veh_passenger" depart="1490.23" departLane="best" from="-310176513#2" to="-168942727#1"/>
    <trip id="veh233" type="veh_passenger" depart="1496.65" departLane="best" from="163368988#3" to="312357351"/>
    <trip id="veh234" type="veh_passenger" depart="1503.08" departLane="best" from="740538839#2" to="23013165#1"/>
    <trip id="veh235" type="veh_passenger" depart="1509.50" departLane="best" from="318282850#2" to="-24241790#2"/>
    <trip id="veh236" type="veh_passenger" depart="1515.92" departLane="best" from="312533962#1" to="305093328#0"/>
    <trip id="veh237" type="veh_passenger" depart="1522.35" departLane="best" from="-29054704#4" to="4613295"/>
    <trip id="veh238" type="veh_passenger" depart="1528.77" departLane="best" departSpeed="max" from="4790842" to="299605821"/>
    <trip id="veh240" type="veh_passenger" depart="1541.62" departLane="best" from="4612981#1" to="194962375#1"/>
    <trip id="veh241" type="veh_passenger" depart="1548.04" departLane="best" from="202157002#2" to="19801618#2"/>
    <trip id="veh242" type="veh_passenger" depart="1554.47" departLane="best" from="26506567#1" to="19002363#2"/>
    <trip id="veh244" type="veh_passenger" depart="1567.31" departLane="best" from="-29290632#1" to="82649618"/>
    <trip id="veh245" type="veh_passenger" depart="1573.74" departLane="best" from="313039168#1" to="24241762#0"/>
    <trip id="veh246" type="veh_passenger" depart="1580.16" departLane="best" from="4083446#2" to="82654059#2"/>
    <trip id="veh247" type="veh_passenger" depart="1586.58" departLane="best" from="109819340#2" to="4615536#1"/>
    <trip id="veh248" type="veh_passenger" depart="1593.01" departLane="best" from="23121445#1" to="43087099#2"/>
    <trip id="veh249" type="veh_passenger" depart="1599.43" departLane="best" from="109819340#0" to="490365295#0"/>
    <trip id="veh250" type="veh_passenger" depart="1605.85" departLane="best" from="4615599#2" to="-25302636#1"/>
    <trip id="veh252" type="veh_passenger" depart="1618.70" departLane="best" from="24241790#1" to="301241681#1"/>
    <trip id="veh253" type="veh_passenger" depart="1625.12" departLane="best" from="19002363#1" to="-168943639#2"/>
    <trip id="veh255" type="veh_passenger" depart="1637.97" departLane="best" departSpeed="max" from="-4790825#2" to="4615496#2"/>
    <trip id="veh256" type="veh_passenger" depart="1644.39" departLane="best" departSpeed="max" from="187103792#0" to="541763974"/>
    <trip id="veh257" type="veh_passenger" depart="1650.82" departLane="best" departSpeed="max" from="312534044" to="136571494#4"/>
    <trip id="veh258" type="veh_passenger" depart="1657.24" departLane="best" from="-24241790#2" to="370359204#0"/>
    <trip id="veh260" type="veh_passenger" depart="1670.09" departLane="best" from="312533962#1" to="309147331#0"/>
    <trip id="veh262" type="veh_passenger" depart="1682.93" departLane="best" departSpeed="max" from="-25294729#1" to="100405009#2"/>
    <trip id="veh263" type="veh_passenger" depart="1689.36" departLane="best" from="312533962#2" to="171826985#1"/>
    <trip id="veh264" type="veh_passenger" depart="1695.78" departLane="best" from="29054704#6" to="25294729#0"/>
    <trip id="veh265" type="veh_passenger" depart="1702.20" departLane="best" departSpeed="max" from="286837510#0" to="23809678#1"/>
    <trip id="veh266" type="veh_passenger" depart="1708.63" departLane="best" departSpeed="max" from="454285423#0" to="188914559"/>
    <trip id="veh267" type="veh_passenger" depart="1715.05" departLane="best" departSpeed="max" from="312534044" to="128396190#2"/>
    <trip id="veh268" type="veh_passenger" depart="1721.47" departLane="best" departSpeed="max" from="-82658674#5" to="-4083446#3"/>
    <trip id="veh269" type="veh_passenger" depart="1727.90" departLane="best" from="-4615536#1" to="-4083446#2"/>
    <trip id="veh271" type="veh_passenger" depart="1740.74" departLane="best" from="-4615497#1" to="-84960595"/>
    <trip id="veh272" type="veh_passenger" depart="1747.17" departLane="best" departSpeed="max" from="24914141#0" to="4083446#1"/>
    <trip id="veh274" type="veh_passenger" depart="1760.01" departLane="best" from="-4615536#3" to="100405009#4"/>
    <trip id="veh276" type="veh_passenger" depart="1772.86" departLane="best" from="286837510#1" to="136571494#2"/>
    <trip id="veh277" type="veh_passenger" depart="1779.28" departLane="best" from="819027709#0" to="294104504#1"/>
    <trip id="veh281" type="veh_passenger" depart="1804.98" departLane="best" from="24540242#1" to="24241797#0"/>
    <trip id="veh282" type="veh_passenger" depart="1811.40" departLane="best" from="-4615497#0" to="-23121445#2"/>
    <trip id="veh283" type="veh_passenger" depart="1817.82" departLane="best" from="72157172" to="25294729#1"/>
    <trip id="veh284" type="veh_passenger" depart="1824.25" departLane="best" from="4615547#0" to="23121445#0"/>
    <trip id="veh285" type="veh_passenger" depart="1830.67" departLane="best" from="-23813206#0" to="305093328#0"/>
    <trip id="veh287" type="veh_passenger" depart="1843.52" departLane="best" from="288585010" to="171826984#2"/>
    <trip id="veh288" type="veh_passenger" depart="1849.94" departLane="best" from="831694400" to="-387892378"/>
    <trip id="veh289" type="veh_passenger" depart="1856.37" departLane="best" from="4612965" to="301167584#0"/>
    <trip id="veh291" type="veh_passenger" depart="1869.21" departLane="best" departSpeed="max" from="286837510#0" to="246044841"/>
    <trip id="veh292" type="veh_passenger" depart="1875.64" departLane="best" from="23386522#13" to="534588621#0"/>
    <trip id="veh294" type="veh_passenger" depart="1888.48" departLane="best" from="43087121#1" to="749876418#1"/>
    <trip id="veh296" type="veh_passenger" depart="1901.33" departLane="best" from="309479676" to="-4615496#2"/>
    <trip id="veh298" type="veh_passenger" depart="1914.18" departLane="best" from="-109819340#2" to="246044841"/>
    <trip id="veh299" type="veh_passenger" depart="1920.60" departLane="best" from="294104504#1" to="168942727#1"/>
    <trip id="veh300" type="veh_passenger" depart="1927.02" departLane="best" from="312533961#0" to="728838409#0"/>
    <trip id="veh301" type="veh_passenger" depart="1933.45" departLane="best" from="46140376#1" to="305093247#2"/>
    <trip id="veh302" type="veh_passenger" depart="1939.87" departLane="best" from="309479676" to="738177360#1"/>
    <trip id="veh303" type="veh_passenger" depart="1946.29" departLane="best" from="202156995#1" to="29177662#1"/>
    <trip id="veh304" type="veh_passenger" depart="1952.72" departLane="best" from="30721662#0" to="61584187#1"/>
    <trip id="veh305" type="veh_passenger" depart="1959.14" departLane="best" departSpeed="max" from="4615599#0" to="-23809670#1"/>
    <trip id="veh307" type="veh_passenger" depart="1971.99" departLane="best" departSpeed="max" from="454285423#0" to="298473729"/>
    <trip id="veh309" type="veh_passenger" depart="1984.83" departLane="best" from="312533962#1" to="316746323#1"/>
    <trip id="veh311" type="veh_passenger" depart="1997.68" departLane="best" from="24914992#1" to="-24993933#0"/>
    <trip id="veh312" type="veh_passenger" depart="2004.10" departLane="best" from="-194962375#2" to="23813206#2"/>
    <trip id="veh314" type="veh_passenger" depart="2016.95" departLane="best" from="-25294729#0" to="82649618"/>
    <trip id="veh316" type="veh_passenger" depart="2029.80" departLane="best" from="728838409#1" to="84960597#1"/>
    <trip id="veh317" type="veh_passenger" depart="2036.22" departLane="best" departSpeed="max" from="310177222#0" to="112128419#2"/>
    <trip id="veh318" type="veh_passenger" depart="2042.64" departLane="best" from="246044848" to="309479676"/>
    <trip id="veh319" type="veh_passenger" depart="2049.07" departLane="best" from="606078065" to="-48303485#1"/>
    <trip id="veh321" type="veh_passenger" depart="2061.91" departLane="best" from="24914992#1" to="-29054704#3"/>
    <trip id="veh322" type="veh_passenger" depart="2068.34" departLane="best" departSpeed="max" from="310177222#0" to="523630409"/>
    <trip id="veh323" type="veh_passenger" depart="2074.76" departLane="best" from="171826985#1" to="313039168#1"/>
    <trip id="veh324" type="veh_passenger" depart="2081.18" departLane="best" from="136571494#1" to="749876418#0"/>
    <trip id="veh325" type="veh_passenger" depart="2087.61" departLane="best" from="4615497#5" to="293931248#1"/>
    <trip id="veh327" type="veh_passenger" depart="2100.45" departLane="best" from="168943642#4" to="82654059#2"/>
    <trip id="veh328" type="veh_passenger" depart="2106.88" departLane="best" from="19801548#2" to="288406367"/>
    <trip id="veh330" type="veh_passenger" depart="2119.73" departLane="best" from="287638448#0" to="23386522#7"/>
    <trip id="veh331" type="veh_passenger" depart="2126.15" departLane="best" from="-4615497#4" to="195401017#5"/>
    <trip id="veh332" type="veh_passenger" depart="2132.57" departLane="best" from="4610362#4" to="305093247#2"/>
    <trip id="veh333" type="veh_passenger" depart="2139.00" departLane="best" from="4611698#1" to="-740538839#2"/>
    <trip id="veh334" type="veh_passenger" depart="2145.42" departLane="best" from="287764737" to="728838409#1"/>
    <trip id="veh335" type="veh_passenger" depart="2151.84" departLane="best" from="23121445#3" to="316092515"/>
    <trip id="veh336" type="veh_passenger" depart="2158.27" departLane="best" departSpeed="max" from="-312176585#2" to="82654059#2"/>
    <trip id="veh338" type="veh_passenger" depart="2171.11" departLane="best" from="-4612974#0" to="293931248#1"/>
    <trip id="veh339" type="veh_passenger" depart="2177.54" departLane="best" from="288355301" to="-29054704#5"/>
    <trip id="veh340" type="veh_passenger" depart="2183.96" departLane="best" from="831659093#1" to="61584187#3"/>
    <trip id="veh341" type="veh_passenger" depart="2190.38" departLane="best" from="23813206#0" to="-370359204#1"/>
    <trip id="veh343" type="veh_passenger" depart="2203.23" departLane="best" from="31912630#0" to="287764737"/>
    <trip id="veh346" type="veh_passenger" depart="2222.50" departLane="best" from="288355301" to="202156994#0"/>