 <routes>
        <!-- Zero label-->
        <vType id="eVehicle" emissionClass="Zero/default" vClass="evehicle" guiShape="evehicle" color="green"/>  
        <!-- C label -->
        <vType id="gasolineEuroSix" emissionClass="HBEFA3/LDV_G_EU6" vClass="passenger" guiShape="passenger" color="0,0,128"/>
        <vType id="dieselEuroSix" emissionClass="HBEFA3/LDV_D_EU6" vClass="passenger" guiShape="passenger" color="0,0,128"/>
        <vType id="hovGasolinaEuroSix" emissionClass="HBEFA3/PC_D_EU6" vClass="passenger" guiShape="passenger" color="0,0,128"/>
        <vType id="normalVehicle" emissionClass="HBEFA3/PC_G_EU4" vClass="passenger" guiShape="passenger" color="0,0,128"/>
        
        <!-- B label -->
        <vType id="highEmissions" emissionClass="HBEFA3/PC_G_EU3" vClass="passenger" guiShape="passenger" color="0,0,128"/>
        <vType id="truck" emissionClass="HBEFA3/HDV_D_EU4" vClass="truck" guiShape="passenger" color="0,0,128"/>
        
        <!-- Type noauthorized -->
        <vType id="noauthority" vClass="custom1" guiShape="passenger" color="red" />

        <trip depart="1" from="-D" to="B" color="yellow" type="gasolineEuroSix" id="veh0"/>
        <trip depart="1" from="-D" to="B" color="yellow" type="highEmissions" id="veh1"/>
        <trip depart="2" from="-D" to="B" color="yellow" type="hovGasolinaEuroSix" id="veh2"/>
        <trip depart="2" from="-D" to="B" color="yellow" type="highEmissions" id="veh3"/>
        <trip depart="15" from="-E" to="G" color="yellow" type="eVehicle" id="veh4"/>
        <trip depart="19" from="-D" to="B" color="yellow" type="eVehicle" id="veh5"/>
        <trip depart="22" from="-B" to="D" color="yellow" type="highEmissions" id="veh6"/>
        <trip depart="25" from="-G" to="E" color="yellow" type="highEmissions" id="veh7"/>
        <trip depart="32" from="-B" to="D" color="yellow" type="normalVehicle" id="veh8"/>
        <trip depart="35" from="-E" to="G" color="yellow" type="normalVehicle" id="veh9"/>
        <trip depart="47" from="-E" to="G" color="yellow" type="normalVehicle" id="veh10"/>
        <trip depart="51" from="-D" to="B" color="yellow" type="eVehicle" id="veh11"/>
        <trip depart="61" from="-G" to="E" color="yellow" type="hovGasolinaEuroSix" id="veh12"/>
        <trip depart="61" from="-G" to="E" color="yellow" type="highEmissions" id="veh13"/>
        <trip depart="71" from="-B" to="D" color="yellow" type="dieselEuroSix" id="veh14"/>
        <trip depart="73" from="-F" to="H" color="yellow" type="dieselEuroSix" id="veh15"/>
        <trip depart="79" from="-B" to="D" color="yellow" type="gasolineEuroSix" id="veh16"/>
        <trip depart="79" from="-B" to="D" color="yellow" type="hovGasolinaEuroSix" id="veh17"/>
        <trip depart="82" from="-E" to="G" color="yellow" type="normalVehicle" id="veh18"/>
        <trip depart="84" from="-A" to="C" color="yellow" type="eVehicle" id="veh19"/>
        <trip depart="85" from="-E" to="G" color="yellow" type="gasolineEuroSix" id="veh20"/>
        <trip depart="85" from="-E" to="G" color="yellow" type="normalVehicle" id="veh21"/>
        <trip depart="91" from="-H" to="F" color="yellow" type="normalVehicle" id="veh22"/>
        <trip depart="92" from="-H" to="F" color="yellow" type="eVehicle" id="veh23"/>
        <trip depart="107" from="-D" to="B" color="yellow" type="eVehicle" id="veh24"/>
        <trip depart="108" from="-G" to="E" color="yellow" type="eVehicle" id="veh25"/>
        <trip depart="108" from="-G" to="E" color="yellow" type="truck" id="veh26"/>
        <trip depart="111" from="-E" to="G" color="yellow" type="truck" id="veh27"/>
        <trip depart="117" from="-G" to="E" color="yellow" type="normalVehicle" id="veh28"/>
        <trip depart="124" from="-B" to="D" color="yellow" type="eVehicle" id="veh29"/>
        <trip depart="134" from="-B" to="D" color="yellow" type="normalVehicle" id="veh30"/>
        <trip depart="135" from="-G" to="E" color="yellow" type="highEmissions" id="veh31"/>
        <trip depart="147" from="-C" to="A" color="yellow" type="gasolineEuroSix" id="veh32"/>
        <trip depart="150" from="-B" to="D" color="yellow" type="gasolineEuroSix" id="veh33"/>
        <trip depart="152" from="-D" to="B" color="yellow" type="truck" id="veh34"/>
        <trip depart="153" from="-G" to="E" color="yellow" type="gasolineEuroSix" id="veh35"/>
        <trip depart="155" from="-D" to="B" color="yellow" type="dieselEuroSix" id="veh36"/>
        <trip depart="156" from="-F" to="H" color="yellow" type="truck" id="veh37"/>
        <trip depart="159" from="-H" to="F" color="yellow" type="eVehicle" id="veh38"/>
        <trip depart="159" from="-H" to="F" color="yellow" type="hovGasolinaEuroSix" id="veh39"/>
        <trip depart="163" from="-E" to="G" color="yellow" type="hovGasolinaEuroSix" id="veh40"/>
        <trip depart="171" from="-D" to="B" color="yellow" type="truck" id="veh41"/>
        <trip depart="174" from="-E" to="G" color="yellow" type="normalVehicle" id="veh42"/>
        <trip depart="181" from="-E" to="G" color="yellow" type="truck" id="veh43"/>
        <trip depart="182" from="-B" to="D" color="yellow" type="eVehicle" id="veh44"/>
        <trip depart="185" from="-G" to="E" color="yellow" type="normalVehicle" id="veh45"/>
        <trip depart="190" from="-C" to="A" color="yellow" type="gasolineEuroSix" id="veh46"/>
        <trip depart="192" from="-F" to="H" color="yellow" type="truck" id="veh47"/>
        <trip depart="193" from="-H" to="F" color="yellow" type="eVehicle" id="veh48"/>
        <trip depart="193" from="-H" to="F" color="yellow" type="hovGasolinaEuroSix" id="veh49"/>
        <trip depart="201" from="-C" to="A" color="yellow" type="highEmissions" id="veh50"/>
        <trip depart="202" from="-A" to="C" color="yellow" type="gasolineEuroSix" id="veh51"/>
        <trip depart="208" from="-C" to="A" color="yellow" type="gasolineEuroSix" id="veh52"/>
        <trip depart="209" from="-B" to="D" color="yellow" type="normalVehicle" id="veh53"/>
        <trip depart="212" from="-D" to="B" color="yellow" type="eVehicle" id="veh54"/>
        <trip depart="212" from="-D" to="B" color="yellow" type="highEmissions" id="veh55"/>
        <trip depart="215" from="-B" to="D" color="yellow" type="eVehicle" id="veh56"/>
        <trip depart="227" from="-F" to="H" color="yellow" type="hovGasolinaEuroSix" id="veh57"/>
        <trip depart="229" from="-E" to="G" color="yellow" type="gasolineEuroSix" id="veh58"/>
        <trip depart="232" from="-C" to="A" color="yellow" type="normalVehicle" id="veh59"/>
        <trip depart="236" from="-B" to="D" color="yellow" type="truck" id="veh60"/>
        <trip depart="238" from="-A" to="C" color="yellow" type="dieselEuroSix" id="veh61"/>
        <trip depart="241" from="-B" to="D" color="yellow" type="eVehicle" id="veh62"/>
        <trip depart="244" from="-F" to="H" color="yellow" type="hovGasolinaEuroSix" id="veh63"/>
        <trip depart="248" from="-E" to="G" color="yellow" type="normalVehicle" id="veh64"/>
        <trip depart="263" from="-C" to="A" color="yellow" type="eVehicle" id="veh65"/>
        <trip depart="268" from="-F" to="H" color="yellow" type="normalVehicle" id="veh66"/>
        <trip depart="269" from="-H" to="F" color="yellow" type="gasolineEuroSix" id="veh67"/>
        <trip depart="270" from="-C" to="A" color="yellow" type="normalVehicle" id="veh68"/>
        <trip depart="271" from="-D" to="B" color="yellow" type="dieselEuroSix" id="veh69"/>
        <trip depart="271" from="-D" to="B" color="yellow" type="normalVehicle" id="veh70"/>
        <trip depart="275" from="-B" to="D" color="yellow" type="hovGasolinaEuroSix" id="veh71"/>
        <trip depart="278" from="-A" to="C" color="yellow" type="dieselEuroSix" id="veh72"/>
        <trip depart="281" from="-F" to="H" color="yellow" type="truck" id="veh73"/>
        <trip depart="283" from="-A" to="C" color="yellow" type="gasolineEuroSix" id="veh74"/>
        <trip depart="286" from="-H" to="F" color="yellow" type="dieselEuroSix" id="veh75"/>
        <trip depart="289" from="-D" to="B" color="yellow" type="normalVehicle" id="veh76"/>
        <trip depart="291" from="-H" to="F" color="yellow" type="normalVehicle" id="veh77"/>
        <trip depart="295" from="-B" to="D" color="yellow" type="dieselEuroSix" id="veh78"/>
        <trip depart="300" from="-H" to="F" color="yellow" type="gasolineEuroSix" id="veh79"/>
        <trip depart="302" from="-G" to="E" color="yellow" type="hovGasolinaEuroSix" id="veh80"/>
        <trip depart="307" from="-A" to="C" color="yellow" type="normalVehicle" id="veh81"/>
        <trip depart="308" from="-A" to="C" color="yellow" type="gasolineEuroSix" id="veh82"/>
        <trip depart="308" from="-A" to="C" color="yellow" type="hovGasolinaEuroSix" id="veh83"/>
        <trip depart="315" from="-H" to="F" color="yellow" type="eVehicle" id="veh84"/>
        <trip depart="316" from="-E" to="G" color="yellow" type="normalVehicle" id="veh85"/>
        <trip depart="316" from="-E" to="G" color="yellow" type="highEmissions" id="veh86"/>
        <trip depart="317" from="-H" to="F" color="yellow" type="eVehicle" id="veh87"/>
        <trip depart="320" from="-F" to="H" color="yellow" type="normalVehicle" id="veh88"/>
        <trip depart="326" from="-G" to="E" color="yellow" type="gasolineEuroSix" id="veh89"/>
        <trip depart="326" from="-G" to="E" color="yellow" type="normalVehicle" id="veh90"/>
        <trip depart="333" from="-H" to="F" color="yellow" type="truck" id="veh91"/>
        <trip depart="337" from="-H" to="F" color="yellow" type="truck" id="veh92"/>
        <trip depart="338" from="-D" to="B" color="yellow" type="highEmissions" id="veh93"/>
        <trip depart="339" from="-C" to="A" color="yellow" type="eVehicle" id="veh94"/>
        <trip depart="343" from="-G" to="E" color="yellow" type="truck" id="veh95"/>
        <trip depart="344" from="-B" to="D" color="yellow" type="truck" id="veh96"/>
        <trip depart="352" from="-B" to="D" color="yellow" type="eVehicle" id="veh97"/>
        <trip depart="356" from="-B" to="D" color="yellow" type="hovGasolinaEuroSix" id="veh98"/>
        <trip depart="359" from="-A" to="C" color="yellow" type="eVehicle" id="veh99"/>
        <trip depart="364" from="-E" to="G" color="yellow" type="highEmissions" id="veh100"/>
        <trip depart="369" from="-B" to="D" color="yellow" type="dieselEuroSix" id="veh101"/>
        <trip depart="369" from="-B" to="D" color="yellow" type="hovGasolinaEuroSix" id="veh102"/>
        <trip depart="371" from="-D" to="B" color="yellow" type="highEmissions" id="veh103"/>
        <trip depart="373" from="-C" to="A" color="yellow" type="dieselEuroSix" id="veh104"/>
        <trip depart="375" from="-D" to="B" color="yellow" type="normalVehicle" id="veh105"/>
        <trip depart="378" from="-E" to="G" color="yellow" type="truck" id="veh106"/>
        <trip depart="390" from="-F" to="H" color="yellow" type="dieselEuroSix" id="veh107"/>
        <trip depart="392" from="-H" to="F" color="yellow" type="eVehicle" id="veh108"/>
        <trip depart="393" from="-G" to="E" color="yellow" type="dieselEuroSix" id="veh109"/>
        <trip depart="394" from="-G" to="E" color="yellow" type="dieselEuroSix" id="veh110"/>
        <trip depart="396" from="-H" to="F" color="yellow" type="highEmissions" id="veh111"/>
        <trip depart="400" from="-A" to="C" color="yellow" type="dieselEuroSix" id="veh112"/>
        <trip depart="400" from="-A" to="C" color="yellow" type="hovGasolinaEuroSix" id="veh113"/>
        <trip depart="404" from="-D" to="B" color="yellow" type="gasolineEuroSix" id="veh114"/>
        <trip depart="414" from="-B" to="D" color="yellow" type="dieselEuroSix" id="veh115"/>
        <trip depart="421" from="-A" to="C" color="yellow" type="gasolineEuroSix" id="veh116"/>
        <trip depart="424" from="-A" to="C" color="yellow" type="hovGasolinaEuroSix" id="veh117"/>
        <trip depart="427" from="-A" to="C" color="yellow" type="gasolineEuroSix" id="veh118"/>
        <trip depart="429" from="-B" to="D" color="yellow" type="normalVehicle" id="veh119"/>
        <trip depart="431" from="-D" to="B" color="yellow" type="highEmissions" id="veh120"/>
        <trip depart="434" from="-B" to="D" color="yellow" type="truck" id="veh121"/>
        <trip depart="436" from="-F" to="H" color="yellow" type="dieselEuroSix" id="veh122"/>
        <trip depart="439" from="-G" to="E" color="yellow" type="normalVehicle" id="veh123"/>
        <trip depart="443" from="-F" to="H" color="yellow" type="eVehicle" id="veh124"/>
        <trip depart="445" from="-E" to="G" color="yellow" type="eVehicle" id="veh125"/>
        <trip depart="451" from="-B" to="D" color="yellow" type="truck" id="veh126"/>
        <trip depart="465" from="-H" to="F" color="yellow" type="eVehicle" id="veh127"/>
        <trip depart="468" from="-H" to="F" color="yellow" type="hovGasolinaEuroSix" id="veh128"/>
        <trip depart="472" from="-D" to="B" color="yellow" type="gasolineEuroSix" id="veh129"/>
        <trip depart="473" from="-G" to="E" color="yellow" type="normalVehicle" id="veh130"/>
        <trip depart="476" from="-E" to="G" color="yellow" type="gasolineEuroSix" id="veh131"/>
        <trip depart="477" from="-E" to="G" color="yellow" type="normalVehicle" id="veh132"/>
        <trip depart="479" from="-A" to="C" color="yellow" type="hovGasolinaEuroSix" id="veh133"/>
        <trip depart="481" from="-G" to="E" color="yellow" type="hovGasolinaEuroSix" id="veh134"/>
        <trip depart="497" from="-C" to="A" color="yellow" type="gasolineEuroSix" id="veh135"/>
        <trip depart="499" from="-C" to="A" color="yellow" type="hovGasolinaEuroSix" id="veh136"/>
        <trip depart="502" from="-G" to="E" color="yellow" type="highEmissions" id="veh137"/>
        <trip depart="505" from="-F" to="H" color="yellow" type="gasolineEuroSix" id="veh138"/>
        <trip depart="516" from="-C" to="A" color="yellow" type="truck" id="veh139"/>
        <trip depart="517" from="-E" to="G" color="yellow" type="dieselEuroSix" id="veh140"/>
        <trip depart="519" from="-G" to="E" color="yellow" type="eVehicle" id="veh141"/>
        <trip depart="522" from="-F" to="H" color="yellow" type="normalVehicle" id="veh142"/>
        <trip depart="535" from="-E" to="G" color="yellow" type="eVehicle" id="veh143"/>
        <trip depart="536" from="-H" to="F" color="yellow" type="normalVehicle" id="veh144"/>
        <trip depart="543" from="-C" to="A" color="yellow" type="eVehicle" id="veh145"/>
        <trip depart="546" from="-E" to="G" color="yellow" type="hovGasolinaEuroSix" id="veh146"/>
        <trip depart="548" from="-B" to="D" color="yellow" type="dieselEuroSix" id="veh147"/>
        <trip depart="557" from="-F" to="H" color="yellow" type="gasolineEuroSix" id="veh148"/>
        <trip depart="561" from="-G" to="E" color="yellow" type="hovGasolinaEuroSix" id="veh149"/>
        <trip depart="562" from="-A" to="C" color="yellow" type="dieselEuroSix" id="veh150"/>
        <trip depart="567" from="-C" to="A" color="yellow" type="eVehicle" id="veh151"/>
        <trip depart="567" from="-C" to="A" color="yellow" type="gasolineEuroSix" id="veh152"/>
        <trip depart="578" from="-B" to="D" color="yellow" type="gasolineEuroSix" id="veh153"/>
        <trip depart="590" from="-C" to="A" color="yellow" type="hovGasolinaEuroSix" id="veh154"/>
        <trip depart="596" from="-H" to="F" color="yellow" type="hovGasolinaEuroSix" id="veh155"/>
        <trip depart="597" from="-B" to="D" color="yellow" type="normalVehicle" id="veh156"/>
        <trip depart="598" from="-C" to="A" color="yellow" type="hovGasolinaEuroSix" id="veh157"/>
        <trip depart="600" from="-E" to="G" color="yellow" type="gasolineEuroSix" id="veh158"/>
        <trip depart="601" from="-G" to="E" color="yellow" type="eVehicle" id="veh159"/>
        <trip depart="605" from="-B" to="D" color="yellow" type="eVehicle" id="veh160"/>
        <trip depart="606" from="-B" to="D" color="yellow" type="eVehicle" id="veh161"/>
        <trip depart="608" from="-D" to="B" color="yellow" type="eVehicle" id="veh162"/>
        <trip depart="608" from="-D" to="B" color="yellow" type="normalVehicle" id="veh163"/>
        <trip depart="608" from="-D" to="B" color="yellow" type="highEmissions" id="veh164"/>
        <trip depart="615" from="-F" to="H" color="yellow" type="eVehicle" id="veh165"/>
        <trip depart="628" from="-C" to="A" color="yellow" type="normalVehicle" id="veh166"/>
        <trip depart="629" from="-G" to="E" color="yellow" type="dieselEuroSix" id="veh167"/>
        <trip depart="634" from="-H" to="F" color="yellow" type="hovGasolinaEuroSix" id="veh168"/>
        <trip depart="638" from="-A" to="C" color="yellow" type="eVehicle" id="veh169"/>
        <trip depart="641" from="-E" to="G" color="yellow" type="highEmissions" id="veh170"/>
        <trip depart="642" from="-B" to="D" color="yellow" type="dieselEuroSix" id="veh171"/>
        <trip depart="646" from="-D" to="B" color="yellow" type="eVehicle" id="veh172"/>
        <trip depart="653" from="-C" to="A" color="yellow" type="eVehicle" id="veh173"/>
        <trip depart="656" from="-F" to="H" color="yellow" type="eVehicle" id="veh174"/>
        <trip depart="658" from="-G" to="E" color="yellow" type="dieselEuroSix" id="veh175"/>
        <trip depart="660" from="-C" to="A" color="yellow" type="normalVehicle" id="veh176"/>
        <trip depart="663" from="-E" to="G" color="yellow" type="gasolineEuroSix" id="veh177"/>
        <trip depart="665" from="-C" to="A" color="yellow" type="highEmissions" id="veh178"/>
        <trip depart="670" from="-B" to="D" color="yellow" type="hovGasolinaEuroSix" id="veh179"/>
        <trip depart="671" from="-C" to="A" color="yellow" type="gasolineEuroSix" id="veh180"/>
        <trip depart="675" from="-E" to="G" color="yellow" type="eVehicle" id="veh181"/>
        <trip depart="679" from="-E" to="G" color="yellow" type="highEmissions" id="veh182"/>
        <trip depart="680" from="-A" to="C" color="yellow" type="gasolineEuroSix" id="veh183"/>
        <trip depart="687" from="-G" to="E" color="yellow" type="hovGasolinaEuroSix" id="veh184"/>
        <trip depart="690" from="-H" to="F" color="yellow" type="normalVehicle" id="veh185"/>
        <trip depart="694" from="-H" to="F" color="yellow" type="dieselEuroSix" id="veh186"/>
        <trip depart="694" from="-H" to="F" color="yellow" type="hovGasolinaEuroSix" id="veh187"/>
        <trip depart="696" from="-H" to="F" color="yellow" type="eVehicle" id="veh188"/>
        <trip depart="705" from="-B" to="D" color="yellow" type="normalVehicle" id="veh189"/>
        <trip depart="706" from="-A" to="C" color="yellow" type="dieselEuroSix" id="veh190"/>
        <trip depart="706" from="-A" to="C" color="yellow" type="hovGasolinaEuroSix" id="veh191"/>
        <trip depart="709" from="-B" to="D" color="yellow" type="eVehicle" id="veh192"/>
        <trip depart="709" from="-B" to="D" color="yellow" type="dieselEuroSix" id="veh193"/>
        <trip depart="709" from="-B" to="D" color="yellow" type="normalVehicle" id="veh194"/>
        <trip depart="713" from="-A" to="C" color="yellow" type="dieselEuroSix" id="veh195"/>
        <trip depart="716" from="-F" to="H" color="yellow" type="truck" id="veh196"/>
        <trip depart="717" from="-D" to="B" color="yellow" type="eVehicle" id="veh197"/>
        <trip depart="719" from="-C" to="A" color="yellow" type="hovGasolinaEuroSix" id="veh198"/>
        <trip depart="726" from="-F" to="H" color="yellow" type="normalVehicle" id="veh199"/>
        <trip depart="738" from="-A" to="C" color="yellow" type="normalVehicle" id="veh200"/>
        <trip depart="740" from="-G" to="E" color="yellow" type="gasolineEuroSix" id="veh201"/>
        <trip depart="741" from="-G" to="E" color="yellow" type="normalVehicle" id="veh202"/>
        <trip depart="743" from="-A" to="C" color="yellow" type="highEmissions" id="veh203"/>
        <trip depart="745" from="-D" to="B" color="yellow" type="hovGasolinaEuroSix" id="veh204"/>
        <trip depart="746" from="-C" to="A" color="yellow" type="highEmissions" id="veh205"/>
        <trip depart="746" from="-C" to="A" color="yellow" type="truck" id="veh206"/>
        <trip depart="756" from="-C" to="A" color="yellow" type="highEmissions" id="veh207"/>
        <trip depart="757" from="-D" to="B" color="yellow" type="normalVehicle" id="veh208"/>
        <trip depart="761" from="-B" to="D" color="yellow" type="hovGasolinaEuroSix" id="veh209"/>
        <trip depart="764" from="-C" to="A" color="yellow" type="eVehicle" id="veh210"/>
        <trip depart="766" from="-F" to="H" color="yellow" type="hovGasolinaEuroSix" id="veh211"/>
        <trip depart="776" from="-F" to="H" color="yellow" type="normalVehicle" id="veh212"/>
        <trip depart="781" from="-C" to="A" color="yellow" type="normalVehicle" id="veh213"/>
        <trip depart="786" from="-B" to="D" color="yellow" type="hovGasolinaEuroSix" id="veh214"/>
        <trip depart="787" from="-E" to="G" color="yellow" type="dieselEuroSix" id="veh215"/>
        <trip depart="789" from="-B" to="D" color="yellow" type="hovGasolinaEuroSix" id="veh216"/>
        <trip depart="795" from="-D" to="B" color="yellow" type="hovGasolinaEuroSix" id="veh217"/>
        <trip depart="810" from="-D" to="B" color="yellow" type="highEmissions" id="veh218"/>
        <trip depart="812" from="-C" to="A" color="yellow" type="gasolineEuroSix" id="veh219"/>
        <trip depart="812" from="-C" to="A" color="yellow" type="dieselEuroSix" id="veh220"/>
        <trip depart="816" from="-B" to="D" color="yellow" type="gasolineEuroSix" id="veh221"/>
        <trip depart="816" from="-B" to="D" color="yellow" type="truck" id="veh222"/>
        <trip depart="821" from="-A" to="C" color="yellow" type="hovGasolinaEuroSix" id="veh223"/>
        <trip depart="830" from="-A" to="C" color="yellow" type="eVehicle" id="veh224"/>
        <trip depart="831" from="-B" to="D" color="yellow" type="dieselEuroSix" id="veh225"/>
        <trip depart="834" from="-D" to="B" color="yellow" type="dieselEuroSix" id="veh226"/>
        <trip depart="836" from="-E" to="G" color="yellow" type="gasolineEuroSix" id="veh227"/>
        <trip depart="837" from="-A" to="C" color="yellow" type="highEmissions" id="veh228"/>
        <trip depart="838" from="-A" to="C" color="yellow" type="eVehicle" id="veh229"/>
        <trip depart="842" from="-F" to="H" color="yellow" type="normalVehicle" id="veh230"/>
        <trip depart="842" from="-F" to="H" color="yellow" type="truck" id="veh231"/>
        <trip depart="844" from="-G" to="E" color="yellow" type="eVehicle" id="veh232"/>
        <trip depart="850" from="-H" to="F" color="yellow" type="dieselEuroSix" id="veh233"/>
        <trip depart="858" from="-B" to="D" color="yellow" type="hovGasolinaEuroSix" id="veh234"/>
        <trip depart="873" from="-B" to="D" color="yellow" type="highEmissions" id="veh235"/>
        <trip depart="874" from="-C" to="A" color="yellow" type="dieselEuroSix" id="veh236"/>
        <trip depart="877" from="-F" to="H" color="yellow" type="eVehicle" id="veh237"/>
        <trip depart="881" from="-E" to="G" color="yellow" type="dieselEuroSix" id="veh238"/>
        <trip depart="882" from="-E" to="G" color="yellow" type="normalVehicle" id="veh239"/>
        <trip depart="886" from="-H" to="F" color="yellow" type="hovGasolinaEuroSix" id="veh240"/>
        <trip depart="887" from="-G" to="E" color="yellow" type="truck" id="veh241"/>
        <trip depart="889" from="-A" to="C" color="yellow" type="eVehicle" id="veh242"/>
        <trip depart="890" from="-H" to="F" color="yellow" type="highEmissions" id="veh243"/>
        <trip depart="894" from="-A" to="C" color="yellow" type="eVehicle" id="veh244"/>
        <trip depart="894" from="-A" to="C" color="yellow" type="dieselEuroSix" id="veh245"/>
        <trip depart="894" from="-A" to="C" color="yellow" type="normalVehicle" id="veh246"/>
        <trip depart="896" from="-A" to="C" color="yellow" type="dieselEuroSix" id="veh247"/>
        <trip depart="899" from="-B" to="D" color="yellow" type="hovGasolinaEuroSix" id="veh248"/>
        <trip depart="905" from="-B" to="D" color="yellow" type="eVehicle" id="veh249"/>
        <trip depart="907" from="-D" to="B" color="yellow" type="gasolineEuroSix" id="veh250"/>
        <trip depart="909" from="-G" to="E" color="yellow" type="eVehicle" id="veh251"/>
        <trip depart="914" from="-F" to="H" color="yellow" type="dieselEuroSix" id="veh252"/>
        <trip depart="926" from="-D" to="B" color="yellow" type="eVehicle" id="veh253"/>
        <trip depart="927" from="-B" to="D" color="yellow" type="eVehicle" id="veh254"/>
        <trip depart="932" from="-B" to="D" color="yellow" type="gasolineEuroSix" id="veh255"/>
        <trip depart="932" from="-B" to="D" color="yellow" type="dieselEuroSix" id="veh256"/>
        <trip depart="934" from="-F" to="H" color="yellow" type="normalVehicle" id="veh257"/>
        <trip depart="935" from="-A" to="C" color="yellow" type="hovGasolinaEuroSix" id="veh258"/>
        <trip depart="941" from="-D" to="B" color="yellow" type="dieselEuroSix" id="veh259"/>
        <trip depart="941" from="-D" to="B" color="yellow" type="hovGasolinaEuroSix" id="veh260"/>
        <trip depart="944" from="-F" to="H" color="yellow" type="gasolineEuroSix" id="veh261"/>
        <trip depart="944" from="-F" to="H" color="yellow" type="normalVehicle" id="veh262"/>
        <trip depart="949" from="-G" to="E" color="yellow" type="dieselEuroSix" id="veh263"/>
        <trip depart="952" from="-E" to="G" color="yellow" type="hovGasolinaEuroSix" id="veh264"/>
        <trip depart="955" from="-D" to="B" color="yellow" type="highEmissions" id="veh265"/>
        <trip depart="964" from="-H" to="F" color="yellow" type="gasolineEuroSix" id="veh266"/>
        <trip depart="975" from="-A" to="C" color="yellow" type="truck" id="veh267"/>
        <trip depart="976" from="-A" to="C" color="yellow" type="highEmissions" id="veh268"/>
        <trip depart="977" from="-C" to="A" color="yellow" type="highEmissions" id="veh269"/>
        <trip depart="978" from="-C" to="A" color="yellow" type="hovGasolinaEuroSix" id="veh270"/>
        <trip depart="979" from="-C" to="A" color="yellow" type="truck" id="veh271"/>
        <trip depart="980" from="-H" to="F" color="yellow" type="gasolineEuroSix" id="veh272"/>
        <trip depart="989" from="-C" to="A" color="yellow" type="normalVehicle" id="veh273"/>
        <trip depart="990" from="-H" to="F" color="yellow" type="dieselEuroSix" id="veh274"/>
        <trip depart="991" from="-C" to="A" color="yellow" type="hovGasolinaEuroSix" id="veh275"/>
        <trip depart="998" from="-H" to="F" color="yellow" type="hovGasolinaEuroSix" id="veh276"/>
        <trip depart="1002" from="-H" to="F" color="yellow" type="normalVehicle" id="veh277"/>
        <trip depart="1008" from="-G" to="E" color="yellow" type="normalVehicle" id="veh278"/>
        <trip depart="1009" from="-D" to="B" color="yellow" type="dieselEuroSix" id="veh279"/>
        <trip depart="1010" from="-C" to="A" color="yellow" type="hovGasolinaEuroSix" id="veh280"/>
        <trip depart="1012" from="-A" to="C" color="yellow" type="highEmissions" id="veh281"/>
        <trip depart="1014" from="-G" to="E" color="yellow" type="gasolineEuroSix" id="veh282"/>
        <trip depart="1019" from="-G" to="E" color="yellow" type="eVehicle" id="veh283"/>
        <trip depart="1025" from="-C" to="A" color="yellow" type="gasolineEuroSix" id="veh284"/>
        <trip depart="1028" from="-F" to="H" color="yellow" type="dieselEuroSix" id="veh285"/>
        <trip depart="1030" from="-B" to="D" color="yellow" type="dieselEuroSix" id="veh286"/>
        <trip depart="1035" from="-D" to="B" color="yellow" type="hovGasolinaEuroSix" id="veh287"/>
        <trip depart="1036" from="-G" to="E" color="yellow" type="truck" id="veh288"/>
        <trip depart="1037" from="-F" to="H" color="yellow" type="dieselEuroSix" id="veh289"/>
        <trip depart="1048" from="-D" to="B" color="yellow" type="dieselEuroSix" id="veh290"/>
        <trip depart="1050" from="-A" to="C" color="yellow" type="hovGasolinaEuroSix" id="veh291"/>
        <trip depart="1050" from="-A" to="C" color="yellow" type="normalVehicle" id="veh292"/>
        <trip depart="1055" from="-F" to="H" color="yellow" type="eVehicle" id="veh293"/>
        <trip depart="1065" from="-H" to="F" color="yellow" type="gasolineEuroSix" id="veh294"/>
        <trip depart="1067" from="-E" to="G" color="yellow" type="truck" id="veh295"/>
        <trip depart="1070" from="-G" to="E" color="yellow" type="dieselEuroSix" id="veh296"/>
        <trip depart="1073" from="-D" to="B" color="yellow" type="normalVehicle" id="veh297"/>
        <trip depart="1079" from="-H" to="F" color="yellow" type="gasolineEuroSix" id="veh298"/>
        <trip depart="1080" from="-G" to="E" color="yellow" type="normalVehicle" id="veh299"/>
        <trip depart="1082" from="-F" to="H" color="yellow" type="eVehicle" id="veh300"/>
        <trip depart="1082" from="-F" to="H" color="yellow" type="gasolineEuroSix" id="veh301"/>
        <trip depart="1083" from="-B" to="D" color="yellow" type="eVehicle" id="veh302"/>
        <trip depart="1084" from="-D" to="B" color="yellow" type="hovGasolinaEuroSix" id="veh303"/>
        <trip depart="1093" from="-A" to="C" color="yellow" type="eVehicle" id="veh304"/>
        <trip depart="1094" from="-C" to="A" color="yellow" type="hovGasolinaEuroSix" id="veh305"/>
        <trip depart="1100" from="-C" to="A" color="yellow" type="dieselEuroSix" id="veh306"/>
        <trip depart="1109" from="-H" to="F" color="yellow" type="eVehicle" id="veh307"/>
        <trip depart="1117" from="-D" to="B" color="yellow" type="truck" id="veh308"/>
        <trip depart="1118" from="-F" to="H" color="yellow" type="normalVehicle" id="veh309"/>