<?xml version="1.0" encoding="UTF-8"?>

<!-- generated on 10/07/20 13:14:35 by Eclipse SUMO netedit Version 1.7.0
<configuration xmlns:xsi="http://www.w3.org/2001/XMLSchema-instance" xsi:noNamespaceSchemaLocation="http://sumo.dlr.de/xsd/netconvertConfiguration.xsd">

    <input>
        <sumo-net-file value="C:\Users\Sandrus\Documents\Research\SUMO\SUMO_DEMOS\3SumoTutorial-QuickStart\quickstart.net.xml"/>
    </input>

    <output>
        <output-file value="C:\Users\Sandrus\Documents\Research\SUMO\SUMO_DEMOS\3SumoTutorial-QuickStart\quickstart.net.xml"/>
    </output>

    <processing>
        <geometry.min-radius.fix.railways value="false"/>
        <geometry.max-grade.fix value="false"/>
        <offset.disable-normalization value="true"/>
        <lefthand value="false"/>
    </processing>

    <junctions>
        <no-turnarounds value="true"/>
        <junctions.corner-detail value="5"/>
        <junctions.limit-turn-speed value="5.5"/>
        <rectangular-lane-cut value="false"/>
    </junctions>

    <pedestrian>
        <walkingareas value="false"/>
    </pedestrian>

    <netedit>
        <route-files value="C:\Users\Sandrus\Documents\Research\SUMO\SUMO_DEMOS\3SumoTutorial-QuickStart\quickstart.rou.xml"/>
    </netedit>

    <report>
        <aggregate-warnings value="5"/>
    </report>

</configuration>
-->

<routes xmlns:xsi="http://www.w3.org/2001/XMLSchema-instance" xsi:noNamespaceSchemaLocation="http://sumo.dlr.de/xsd/routes_file.xsd">
    <vType id="CarA" maxSpeed="50.00" accel="3.0" decel="6.0"/>
    <vType id="CarB" length="7.50" maxSpeed="50.00" accel="2.0" decel="6.0"/>
    <vType id="CarC" maxSpeed="40.00" accel="1.0" decel="5.0"/>
    <vType id="CarD" length="7.50" maxSpeed="30.00" accel="1.0" decel="5.0"/>
    <route edges="D2 L2 L12 L10 L7 D7" color="yellow" id="route01" />
    <route edges="D2 L2 L12 L15 L18 L5 D5" color="yellow" id="route02"/>
    <route edges="D2 L2 L12 L15 L13 L3 D3" color="yellow" id="route03"/>
    <route edges="D4 L4 L14 L18 L5 D5" color="yellow" id="route04"/>
    <route edges="D4 L4 L14 L16 L10 L7 D7" color="yellow" id="route05"/>
    <route edges="D4 L4 L14 L16 L11 L1 D1" color="yellow" id="route06"/>
    <route edges="D6 L6 L17 L13 L3 D3" color="yellow" id="route07"/>
    <route edges="D6 L6 L17 L16 L11 L1 D1" color="yellow" id="route08"/>
    <route edges="D6 L6 L17 L16 L10 L7 D7" color="yellow" id="route09"/>
    <route edges="D8 L8 L9 L11 L1 D1" color="yellow" id="route10"/>
    <route edges="D8 L8 L9 L15 L13 L3 D3" color="yellow" id="route11"/>
    <route edges="D8 L8 L9 L15 L18 L5 D5" color="yellow" id="route12"/>

    <vehicle depart="54000" id="veh0" route="route01" type="CarA" color="1,0,0" />
    <vehicle depart="54000" id="veh1" route="route02" type="CarA" />
    <vehicle depart="54000" id="veh2" route="route03" type="CarA" />
    <vehicle depart="54000" id="veh3" route="route04" type="CarA" />
    <vehicle depart="54000" id="veh4" route="route05" type="CarA" />
    <vehicle depart="54000" id="veh5" route="route06" type="CarA" />
    <vehicle depart="54000" id="veh6" route="route07" type="CarA" />
    <vehicle depart="54000" id="veh7" route="route08" type="CarA" />
    <vehicle depart="54000" id="veh8" route="route09" type="CarA" />
    <vehicle depart="54000" id="veh9" route="route10" type="CarA" />
    <vehicle depart="54000" id="veh10" route="route11" type="CarA" /> 
    <vehicle depart="54000" id="veh11" route="route12" type="CarA" />
    <vehicle depart="54000" id="veh12" route="route01" type="CarB" color="1,0,0" />
    <vehicle depart="54000" id="veh13" route="route02" type="CarB" />
    <vehicle depart="54000" id="veh14" route="route03" type="CarB" />
    <vehicle depart="54000" id="veh15" route="route04" type="CarB" />
    <vehicle depart="54000" id="veh16" route="route05" type="CarB" />
    <vehicle depart="54000" id="veh17" route="route06" type="CarB" />
    <vehicle depart="54000" id="veh18" route="route07" type="CarB" />
</routes>
