<?xml version="1.0" encoding="UTF-8"?>

<!-- generated on 12/02/20 21:54:41 by Eclipse SUMO GUI Version 1.7.0
-->

<configuration xmlns:xsi="http://www.w3.org/2001/XMLSchema-instance" xsi:noNamespaceSchemaLocation="http://sumo.dlr.de/xsd/sumoConfiguration.xsd">

    <input>
        <net-file value="emergency.net.xml"/>
        <route-files value="emergency.rou.xml"/>
        <additional-files value="emergency.add.xml"/>
    </input>

</configuration>
