<?xml version="1.0" encoding="UTF-8"?>

<!-- generated on 12/15/20 18:58:15 by Eclipse SUMO netedit Version 1.7.0
<configuration xmlns:xsi="http://www.w3.org/2001/XMLSchema-instance" xsi:noNamespaceSchemaLocation="http://sumo.dlr.de/xsd/netconvertConfiguration.xsd">

    <input>
        <sumo-net-file value="C:\Users\Sandrus\Documents\Research\SUMO\SUMO_DEMOS\Intersections_Emissions_TraCI\Intersections_emergency_TraCI\emergency.net.xml"/>
    </input>

    <output>
        <output-file value="C:\Users\Sandrus\Documents\Research\SUMO\SUMO_DEMOS\Intersections_Emissions_TraCI\Intersections_emergency_TraCI\emergency.net.xml"/>
    </output>

    <processing>
        <geometry.min-radius.fix.railways value="false"/>
        <geometry.max-grade.fix value="false"/>
        <offset.disable-normalization value="true"/>
        <lefthand value="false"/>
    </processing>

    <junctions>
        <no-turnarounds value="true"/>
        <junctions.corner-detail value="5"/>
        <junctions.limit-turn-speed value="5.5"/>
        <rectangular-lane-cut value="false"/>
    </junctions>

    <pedestrian>
        <walkingareas value="false"/>
    </pedestrian>

    <netedit>
        <route-files value="C:\Users\Sandrus\Documents\Research\SUMO\SUMO_DEMOS\Intersections_Emissions_TraCI\Intersections_emergency_TraCI\emergency.rou.xml"/>
    </netedit>

    <report>
        <aggregate-warnings value="5"/>
    </report>

</configuration>
-->

<net version="1.6" junctionCornerDetail="5" limitTurnSpeed="5.50" xmlns:xsi="http://www.w3.org/2001/XMLSchema-instance" xsi:noNamespaceSchemaLocation="http://sumo.dlr.de/xsd/net_file.xsd">

    <location netOffset="0.00,0.00" convBoundary="-105.38,-74.20,94.78,122.56" origBoundary="-10000000000.00,-10000000000.00,10000000000.00,10000000000.00" projParameter="!"/>

    <edge id=":n0_0" function="internal">
        <lane id=":n0_0_0" index="0" speed="13.89" length="14.40" shape="-2.81,8.41 -2.81,-5.99"/>
    </edge>
    <edge id=":n0_1" function="internal">
        <lane id=":n0_1_0" index="0" speed="8.00" length="14.19" shape="-2.81,8.41 -2.26,4.56 -0.61,1.81 2.14,0.16 5.99,-0.39"/>
    </edge>
    <edge id=":n0_2" function="internal">
        <lane id=":n0_2_0" index="0" speed="13.89" length="14.40" shape="0.39,8.41 0.39,-5.99"/>
    </edge>
    <edge id=":n0_3" function="internal">
        <lane id=":n0_3_0" index="0" speed="6.51" length="9.03" shape="0.39,8.41 0.74,5.96 1.79,4.21 3.54,3.16 5.99,2.81"/>
    </edge>
    <edge id=":n0_4" function="internal">
        <lane id=":n0_4_0" index="0" speed="7.33" length="11.73" shape="-8.41,2.81 -5.96,2.26 -4.21,0.61 -3.16,-2.14 -2.81,-5.99"/>
    </edge>
    <edge id=":n0_5" function="internal">
        <lane id=":n0_5_0" index="0" speed="8.00" length="14.19" shape="-8.41,2.81 -4.56,2.26 -1.81,0.61 -0.16,-2.14 0.39,-5.99"/>
    </edge>
    <edge id=":n0_6" function="internal">
        <lane id=":n0_6_0" index="0" speed="13.89" length="14.62" shape="-8.41,2.81 -5.09,2.31 -2.10,1.21 1.33,0.11 5.99,-0.39"/>
        <lane id=":n0_6_1" index="1" speed="13.89" length="14.62" shape="-8.41,2.81 5.99,2.81"/>
    </edge>
    <edge id=":n1b_0" function="internal">
        <lane id=":n1b_0_0" index="0" speed="13.89" length="8.40" shape="0.39,82.95 -0.11,80.49 -1.21,78.95 -2.31,77.41 -2.81,74.95"/>
        <lane id=":n1b_0_1" index="1" speed="13.89" length="8.40" shape="0.39,82.95 0.39,74.95"/>
    </edge>

    <edge id="e1a" from="n1a" to="n1b" priority="-1">
        <lane id="e1a_0" index="0" speed="13.89" length="39.61" shape="0.39,122.56 0.39,82.95"/>
    </edge>
    <edge id="e1b" from="n1b" to="n0" priority="-1">
        <lane id="e1b_0" index="0" speed="13.89" length="66.54" shape="-2.81,74.95 -2.81,8.41"/>
        <lane id="e1b_1" index="1" speed="13.89" length="66.54" shape="0.39,74.95 0.39,8.41"/>
    </edge>
    <edge id="e2" from="n0" to="n2" priority="-1">
        <lane id="e2_0" index="0" speed="13.89" length="88.79" shape="5.99,-0.39 94.78,-0.39"/>
        <lane id="e2_1" index="1" speed="13.89" length="88.79" shape="5.99,2.81 94.78,2.81"/>
    </edge>
    <edge id="e3" from="n0" to="n3" priority="-1">
        <lane id="e3_0" index="0" speed="13.89" length="68.21" shape="-2.81,-5.99 -2.81,-74.20"/>
        <lane id="e3_1" index="1" speed="13.89" length="68.21" shape="0.39,-5.99 0.39,-74.20"/>
    </edge>
    <edge id="e4" from="n4" to="n0" priority="-1">
        <lane id="e4_0" index="0" speed="13.89" length="96.97" shape="-105.38,2.81 -8.41,2.81"/>
    </edge>

    <tlLogic id="n0" type="static" programID="0" offset="0">
        <phase duration="42" state="GgGGrrrr"/>
        <phase duration="3"  state="Ggyyrrrr"/>
        <phase duration="42" state="GgrrGGGG"/>
        <phase duration="3"  state="Ggrryyyy"/>
    </tlLogic>

    <junction id="n0" type="traffic_light" x="1.99" y="4.41" incLanes="e1b_0 e1b_1 e4_0" intLanes=":n0_0_0 :n0_1_0 :n0_2_0 :n0_3_0 :n0_4_0 :n0_5_0 :n0_6_0 :n0_6_1" shape="-4.41,8.41 1.99,8.41 2.43,6.19 2.99,5.41 3.77,4.85 4.77,4.52 5.99,4.41 5.99,-1.99 3.77,-2.43 2.99,-2.99 2.43,-3.77 2.10,-4.77 1.99,-5.99 -4.41,-5.99 -4.52,-3.79 -4.85,-1.99 -5.41,-0.59 -6.19,0.41 -7.19,1.01 -8.41,1.21 -8.41,4.41 -6.19,4.85 -5.41,5.41 -4.85,6.19 -4.52,7.19">
        <request index="0" response="00000000" foes="11110000" cont="0"/>
        <request index="1" response="00000100" foes="11000100" cont="0"/>
        <request index="2" response="00000000" foes="11110010" cont="0"/>
        <request index="3" response="00000000" foes="11000000" cont="0"/>
        <request index="4" response="00000101" foes="00000101" cont="0"/>
        <request index="5" response="00000101" foes="00000101" cont="0"/>
        <request index="6" response="00001111" foes="00001111" cont="0"/>
        <request index="7" response="00001111" foes="00001111" cont="0"/>
    </junction>
    <junction id="n1a" type="dead_end" x="1.99" y="122.56" incLanes="" intLanes="" shape="1.99,122.56 -1.21,122.56"/>
    <junction id="n1b" type="priority" x="1.99" y="78.95" incLanes="e1a_0" intLanes=":n1b_0_0 :n1b_0_1" shape="-1.21,82.95 1.99,82.95 1.99,74.95 -4.41,74.95 -3.58,77.98 -2.04,79.92 -1.45,81.16">
        <request index="0" response="00" foes="00" cont="0"/>
        <request index="1" response="00" foes="00" cont="0"/>
    </junction>
    <junction id="n2" type="dead_end" x="94.78" y="4.41" incLanes="e2_0 e2_1" intLanes="" shape="94.78,-1.99 94.78,4.41"/>
    <junction id="n3" type="dead_end" x="1.99" y="-74.20" incLanes="e3_0 e3_1" intLanes="" shape="-4.41,-74.20 1.99,-74.20"/>
    <junction id="n4" type="dead_end" x="-105.38" y="4.41" incLanes="" intLanes="" shape="-105.38,4.41 -105.38,1.21"/>

    <connection from="e1a" to="e1b" fromLane="0" toLane="0" via=":n1b_0_0" dir="s" state="M"/>
    <connection from="e1a" to="e1b" fromLane="0" toLane="1" via=":n1b_0_1" dir="s" state="M"/>
    <connection from="e1b" to="e3" fromLane="0" toLane="0" via=":n0_0_0" tl="n0" linkIndex="0" dir="s" state="O"/>
    <connection from="e1b" to="e2" fromLane="0" toLane="0" via=":n0_1_0" tl="n0" linkIndex="1" dir="l" state="O"/>
    <connection from="e1b" to="e3" fromLane="1" toLane="1" via=":n0_2_0" tl="n0" linkIndex="2" dir="s" state="O"/>
    <connection from="e1b" to="e2" fromLane="1" toLane="1" via=":n0_3_0" tl="n0" linkIndex="3" dir="l" state="O"/>
    <connection from="e4" to="e3" fromLane="0" toLane="0" via=":n0_4_0" tl="n0" linkIndex="4" dir="r" state="o"/>
    <connection from="e4" to="e3" fromLane="0" toLane="1" via=":n0_5_0" tl="n0" linkIndex="5" dir="r" state="o"/>
    <connection from="e4" to="e2" fromLane="0" toLane="0" via=":n0_6_0" tl="n0" linkIndex="6" dir="s" state="o"/>
    <connection from="e4" to="e2" fromLane="0" toLane="1" via=":n0_6_1" tl="n0" linkIndex="7" dir="s" state="o"/>

    <connection from=":n0_0" to="e3" fromLane="0" toLane="0" dir="s" state="M"/>
    <connection from=":n0_1" to="e2" fromLane="0" toLane="0" dir="l" state="M"/>
    <connection from=":n0_2" to="e3" fromLane="0" toLane="1" dir="s" state="M"/>
    <connection from=":n0_3" to="e2" fromLane="0" toLane="1" dir="l" state="M"/>
    <connection from=":n0_4" to="e3" fromLane="0" toLane="0" dir="r" state="M"/>
    <connection from=":n0_5" to="e3" fromLane="0" toLane="1" dir="r" state="M"/>
    <connection from=":n0_6" to="e2" fromLane="0" toLane="0" dir="s" state="M"/>
    <connection from=":n0_6" to="e2" fromLane="1" toLane="1" dir="s" state="M"/>
    <connection from=":n1b_0" to="e1b" fromLane="0" toLane="0" dir="s" state="M"/>
    <connection from=":n1b_0" to="e1b" fromLane="1" toLane="1" dir="s" state="M"/>

</net>
