<?xml version="1.0" encoding="UTF-8"?>

<!-- generated on 01/12/21 13:27:51 by Eclipse SUMO GUI Version 1.7.0
-->

<configuration xmlns:xsi="http://www.w3.org/2001/XMLSchema-instance" xsi:noNamespaceSchemaLocation="http://sumo.dlr.de/xsd/sumoConfiguration.xsd">

    <input>
        <net-file value="base_case.net.xml"/>
        <route-files value="base_case.rou.xml"/>
    </input>

</configuration>
