<?xml version="1.0" encoding="UTF-8"?>

<!-- generated on 01/12/21 13:27:26 by Eclipse SUMO netedit Version 1.7.0
<configuration xmlns:xsi="http://www.w3.org/2001/XMLSchema-instance" xsi:noNamespaceSchemaLocation="http://sumo.dlr.de/xsd/netconvertConfiguration.xsd">

    <input>
        <sumo-net-file value="C:\Users\Sandrus\Documents\Research\SUMO\SUMO_DEMOS\Priorizite_Access_Emissions\base_case\base_case.net.xml"/>
    </input>

    <output>
        <output-file value="C:\Users\Sandrus\Documents\Research\SUMO\SUMO_DEMOS\Priorizite_Access_Emissions\base_case\base_case.net.xml"/>
    </output>

    <processing>
        <geometry.min-radius.fix.railways value="false"/>
        <geometry.max-grade.fix value="false"/>
        <offset.disable-normalization value="true"/>
        <lefthand value="false"/>
    </processing>

    <junctions>
        <no-turnarounds value="true"/>
        <junctions.corner-detail value="5"/>
        <junctions.limit-turn-speed value="5.5"/>
        <rectangular-lane-cut value="false"/>
    </junctions>

    <pedestrian>
        <walkingareas value="false"/>
    </pedestrian>

    <netedit>
        <route-files value="C:\Users\Sandrus\Documents\Research\SUMO\SUMO_DEMOS\Priorizite_Access_Emissions\base_case\base_case.rou.xml"/>
    </netedit>

    <report>
        <aggregate-warnings value="5"/>
    </report>

</configuration>
-->

<routes xmlns:xsi="http://www.w3.org/2001/XMLSchema-instance" xsi:noNamespaceSchemaLocation="http://sumo.dlr.de/xsd/routes_file.xsd">
    <vType id="eVehicle" vClass="evehicle" guiShape="evehicle" color="green"/>
    <vType id="normalVehicle" vClass="passenger" guiShape="passenger" color="0,0,128"/>

    <route edges="-gneE118 gneE123" color="yellow" id="route_1"/>
    <route edges="gneE104 gneE122" color="yellow" id="route_2"/>
    <route edges="-gneE119 -gneE14" color="yellow" id="route_3"/>
    <route edges="gneE100 gneE60" color="yellow" id="route_4"/>

    <vehicle id="veh1" type="eVehicle" route="route_1" depart="10" />
    <vehicle id="veh2" type="eVehicle" route="route_2" depart="100" />
    <vehicle id="veh3" type="eVehicle" route="route_3" depart="200" />
    <vehicle id="veh4" type="eVehicle" route="route_4" depart="300" />

</routes>
