<?xml version="1.0" encoding="UTF-8"?>

<!-- generated on 10/08/20 17:37:24 by Eclipse SUMO netedit Version 1.7.0
<configuration xmlns:xsi="http://www.w3.org/2001/XMLSchema-instance" xsi:noNamespaceSchemaLocation="http://sumo.dlr.de/xsd/netconvertConfiguration.xsd">

    <output>
        <output-file value="C:\Users\Sandrus\Documents\Research\SUMO\SUMO_DEMOS\7SumoTutorial-Autobahn\autobahn.net.xml"/>
    </output>

    <processing>
        <offset.disable-normalization value="true"/>
    </processing>

    <junctions>
        <no-turnarounds value="true"/>
    </junctions>

    <report>
        <aggregate-warnings value="5"/>
    </report>

</configuration>
-->

<net version="1.6" junctionCornerDetail="5" limitTurnSpeed="5.50" xmlns:xsi="http://www.w3.org/2001/XMLSchema-instance" xsi:noNamespaceSchemaLocation="http://sumo.dlr.de/xsd/net_file.xsd">

    <location netOffset="0.00,0.00" convBoundary="0.00,0.00,400.00,0.00" origBoundary="10000000000.00,10000000000.00,-10000000000.00,-10000000000.00" projParameter="!"/>

    <edge id=":gneJ2_0" function="internal">
        <lane id=":gneJ2_0_0" index="0" speed="36.11" length="0.10" shape="100.13,-8.00 100.13,-8.00"/>
        <lane id=":gneJ2_0_1" index="1" speed="36.11" length="0.10" shape="100.13,-4.80 100.13,-4.80"/>
        <lane id=":gneJ2_0_2" index="2" speed="36.11" length="0.10" shape="100.13,-1.60 100.13,-1.60"/>
    </edge>
    <edge id=":gneJ3_0" function="internal">
        <lane id=":gneJ3_0_0" index="0" speed="36.11" length="0.10" shape="300.60,-8.00 300.60,-8.00"/>
        <lane id=":gneJ3_0_1" index="1" speed="36.11" length="0.10" shape="300.60,-4.80 300.60,-4.80"/>
        <lane id=":gneJ3_0_2" index="2" speed="36.11" length="0.10" shape="300.60,-1.60 300.60,-1.60"/>
    </edge>

    <edge id="entry" from="gneJ0" to="gneJ2" priority="-1" length="400.00">
        <lane id="entry_0" index="0" speed="36.11" length="400.00" shape="0.00,-8.00 100.13,-8.00"/>
        <lane id="entry_1" index="1" speed="36.11" length="400.00" shape="0.00,-4.80 100.13,-4.80"/>
        <lane id="entry_2" index="2" speed="36.11" length="400.00" shape="0.00,-1.60 100.13,-1.60"/>
    </edge>
    <edge id="exit" from="gneJ3" to="gneJ1" priority="-1">
        <lane id="exit_0" index="0" speed="36.11" length="99.40" shape="300.60,-8.00 400.00,-8.00"/>
        <lane id="exit_1" index="1" speed="36.11" length="99.40" shape="300.60,-4.80 400.00,-4.80"/>
        <lane id="exit_2" index="2" speed="36.11" length="99.40" shape="300.60,-1.60 400.00,-1.60"/>
    </edge>
    <edge id="longEdge" from="gneJ2" to="gneJ3" priority="-1">
        <lane id="longEdge_0" index="0" speed="36.11" length="200.48" shape="100.13,-8.00 300.60,-8.00"/>
        <lane id="longEdge_1" index="1" speed="36.11" length="200.48" shape="100.13,-4.80 300.60,-4.80"/>
        <lane id="longEdge_2" index="2" speed="36.11" length="200.48" shape="100.13,-1.60 300.60,-1.60"/>
    </edge>

    <junction id="gneJ0" type="dead_end" x="0.00" y="0.00" incLanes="" intLanes="" shape="0.00,0.00 0.00,-9.60"/>
    <junction id="gneJ1" type="dead_end" x="400.00" y="0.00" incLanes="exit_0 exit_1 exit_2" intLanes="" shape="400.00,-9.60 400.00,0.00"/>
    <junction id="gneJ2" type="priority" x="100.13" y="0.00" incLanes="entry_0 entry_1 entry_2" intLanes=":gneJ2_0_0 :gneJ2_0_1 :gneJ2_0_2" shape="100.13,0.00 100.13,-9.60 100.13,0.00">
        <request index="0" response="000" foes="000" cont="0"/>
        <request index="1" response="000" foes="000" cont="0"/>
        <request index="2" response="000" foes="000" cont="0"/>
    </junction>
    <junction id="gneJ3" type="priority" x="300.60" y="0.00" incLanes="longEdge_0 longEdge_1 longEdge_2" intLanes=":gneJ3_0_0 :gneJ3_0_1 :gneJ3_0_2" shape="300.60,0.00 300.60,-9.60 300.60,0.00">
        <request index="0" response="000" foes="000" cont="0"/>
        <request index="1" response="000" foes="000" cont="0"/>
        <request index="2" response="000" foes="000" cont="0"/>
    </junction>

    <connection from="entry" to="longEdge" fromLane="0" toLane="0" via=":gneJ2_0_0" dir="s" state="M"/>
    <connection from="entry" to="longEdge" fromLane="1" toLane="1" via=":gneJ2_0_1" dir="s" state="M"/>
    <connection from="entry" to="longEdge" fromLane="2" toLane="2" via=":gneJ2_0_2" dir="s" state="M"/>
    <connection from="longEdge" to="exit" fromLane="0" toLane="0" via=":gneJ3_0_0" dir="s" state="M"/>
    <connection from="longEdge" to="exit" fromLane="1" toLane="1" via=":gneJ3_0_1" dir="s" state="M"/>
    <connection from="longEdge" to="exit" fromLane="2" toLane="2" via=":gneJ3_0_2" dir="s" state="M"/>

    <connection from=":gneJ2_0" to="longEdge" fromLane="0" toLane="0" dir="s" state="M"/>
    <connection from=":gneJ2_0" to="longEdge" fromLane="1" toLane="1" dir="s" state="M"/>
    <connection from=":gneJ2_0" to="longEdge" fromLane="2" toLane="2" dir="s" state="M"/>
    <connection from=":gneJ3_0" to="exit" fromLane="0" toLane="0" dir="s" state="M"/>
    <connection from=":gneJ3_0" to="exit" fromLane="1" toLane="1" dir="s" state="M"/>
    <connection from=":gneJ3_0" to="exit" fromLane="2" toLane="2" dir="s" state="M"/>

</net>
