<?xml version="1.0" encoding="UTF-8"?>

<!-- generated on 01/29/21 11:11:46 by Eclipse SUMO GUI Version 1.7.0
<configuration xmlns:xsi="http://www.w3.org/2001/XMLSchema-instance" xsi:noNamespaceSchemaLocation="http://sumo.dlr.de/xsd/sumoConfiguration.xsd">

    <input>
        <net-file value="case2.net.xml"/>
        <route-files value="case2.rou.xml"/>
        <additional-files value="case2.add.xml"/>
    </input>

    <output>
        <emission-output value="emissionOutput.xml"/>
        <tripinfo-output value="tripinfo.xml"/>
    </output>

    <processing>
        <ignore-route-errors value="true"/>
    </processing>

    <traci_server>
        <remote-port value="61249"/>
    </traci_server>

</configuration>
