<?xml version="1.0" encoding="UTF-8"?>

<!-- generated on 10/08/20 16:28:26 by Eclipse SUMO GUI Version 1.7.0
-->

<configuration xmlns:xsi="http://www.w3.org/2001/XMLSchema-instance" xsi:noNamespaceSchemaLocation="http://sumo.dlr.de/xsd/sumoConfiguration.xsd">

    <input>
        <net-file value="sumolypics.net.xml"/>
        <route-files value="sumolympicWalks.rou.xml"/>
    </input>
    <processing>
        <lateral-resolution value="1." />
    </processing>

</configuration>
