<routes>
    <trip id="v0.0" type="car" depart="0" from="mainin" to="road0">
        <stop parkingArea="ParkArea0" duration="1000"/>
    </trip>
    <trip id="v-0.0" type="car" depart="0" from="mainin" to="-road0">
        <stop parkingArea="ParkArea-0" duration="1000"/>
    </trip>
    <person id="v0.0p0" type="ped_pedestrian" depart="triggered">
        <ride from="mainin" to="road0" lines="v0.0"/>
        <walk busStop="cyber0to1stop"/>
        <ride to="cyberout" lines="taxi"/>
    </person>
    <person id="v-0.0p0" type="ped_pedestrian" depart="triggered">
        <ride from="mainin" to="-road0" lines="v-0.0"/>
        <walk busStop="cyber0to1stop"/>
        <ride to="cyberout" lines="taxi"/>
    </person>
    <person id="v0.0p1" type="ped_pedestrian" depart="triggered">
        <ride from="mainin" to="road0" lines="v0.0"/>
        <walk busStop="cyber0to1stop"/>
        <ride to="cyberout" lines="taxi"/>
    </person>
    <person id="v-0.0p1" type="ped_pedestrian" depart="triggered">
        <ride from="mainin" to="-road0" lines="v-0.0"/>
        <walk busStop="cyber0to1stop"/>
        <ride to="cyberout" lines="taxi"/>
    </person>
    <trip id="v1.0" type="car" depart="0" from="mainin" to="road1">
        <stop parkingArea="ParkArea1" duration="1000"/>
    </trip>
    <trip id="v-1.0" type="car" depart="0" from="mainin" to="-road1">
        <stop parkingArea="ParkArea-1" duration="1000"/>
    </trip>
    <person id="v1.0p0" type="ped_pedestrian" depart="triggered">
        <ride from="mainin" to="road1" lines="v1.0"/>
        <walk busStop="cyber1to2stop"/>
        <ride to="cyberout" lines="taxi"/>
    </person>
    <person id="v-1.0p0" type="ped_pedestrian" depart="triggered">
        <ride from="mainin" to="-road1" lines="v-1.0"/>
        <walk busStop="cyber1to2stop"/>
        <ride to="cyberout" lines="taxi"/>
    </person>
    <trip id="v2.0" type="car" depart="0" from="mainin" to="road2">
        <stop parkingArea="ParkArea2" duration="1000"/>
    </trip>
    <trip id="v-2.0" type="car" depart="0" from="mainin" to="-road2">
        <stop parkingArea="ParkArea-2" duration="1000"/>
    </trip>
    <person id="v2.0p0" type="ped_pedestrian" depart="triggered">
        <ride from="mainin" to="road2" lines="v2.0"/>
        <walk busStop="cyber2to3stop"/>
        <ride to="cyberout" lines="taxi"/>
    </person>
    <person id="v-2.0p0" type="ped_pedestrian" depart="triggered">
        <ride from="mainin" to="-road2" lines="v-2.0"/>
        <walk busStop="cyber2to3stop"/>
        <ride to="cyberout" lines="taxi"/>
    </person>
    <trip id="v3.0" type="car" depart="0" from="mainin" to="road3">
        <stop parkingArea="ParkArea3" duration="1000"/>
    </trip>
    <trip id="v-3.0" type="car" depart="0" from="mainin" to="-road3">
        <stop parkingArea="ParkArea-3" duration="1000"/>
    </trip>
    <person id="v3.0p0" type="ped_pedestrian" depart="triggered">
        <ride from="mainin" to="road3" lines="v3.0"/>
        <walk busStop="cyber3to4stop"/>
        <ride to="cyberout" lines="taxi"/>
    </person>
    <person id="v-3.0p0" type="ped_pedestrian" depart="triggered">
        <ride from="mainin" to="-road3" lines="v-3.0"/>
        <walk busStop="cyber3to4stop"/>
        <ride to="cyberout" lines="taxi"/>
    </person>
    <person id="v3.0p1" type="ped_pedestrian" depart="triggered">
        <ride from="mainin" to="road3" lines="v3.0"/>
        <walk busStop="cyber3to4stop"/>
        <ride to="cyberout" lines="taxi"/>
    </person>
    <person id="v-3.0p1" type="ped_pedestrian" depart="triggered">
        <ride from="mainin" to="-road3" lines="v-3.0"/>
        <walk busStop="cyber3to4stop"/>
        <ride to="cyberout" lines="taxi"/>
    </person>
    <trip id="v4.0" type="car" depart="0" from="mainin" to="road4">
        <stop parkingArea="ParkArea4" duration="1000"/>
    </trip>
    <trip id="v-4.0" type="car" depart="0" from="mainin" to="-road4">
        <stop parkingArea="ParkArea-4" duration="1000"/>
    </trip>
    <person id="v4.0p0" type="ped_pedestrian" depart="triggered">
        <ride from="mainin" to="road4" lines="v4.0"/>
        <walk busStop="cyber4to5stop"/>
        <ride to="cyberout" lines="taxi"/>
    </person>
    <person id="v-4.0p0" type="ped_pedestrian" depart="triggered">
        <ride from="mainin" to="-road4" lines="v-4.0"/>
        <walk busStop="cyber4to5stop"/>
        <ride to="cyberout" lines="taxi"/>
    </person>
    <person id="v4.0p1" type="ped_pedestrian" depart="triggered">
        <ride from="mainin" to="road4" lines="v4.0"/>
        <walk busStop="cyber4to5stop"/>
        <ride to="cyberout" lines="taxi"/>
    </person>
    <person id="v-4.0p1" type="ped_pedestrian" depart="triggered">
        <ride from="mainin" to="-road4" lines="v-4.0"/>
        <walk busStop="cyber4to5stop"/>
        <ride to="cyberout" lines="taxi"/>
    </person>
    <person id="v4.0p2" type="ped_pedestrian" depart="triggered">
        <ride from="mainin" to="road4" lines="v4.0"/>
        <walk busStop="cyber4to5stop"/>
        <ride to="cyberout" lines="taxi"/>
    </person>
    <person id="v-4.0p2" type="ped_pedestrian" depart="triggered">
        <ride from="mainin" to="-road4" lines="v-4.0"/>
        <walk busStop="cyber4to5stop"/>
        <ride to="cyberout" lines="taxi"/>
    </person>
    <trip id="v5.0" type="car" depart="0" from="mainin" to="road5">
        <stop parkingArea="ParkArea5" duration="1000"/>
    </trip>
    <trip id="v-5.0" type="car" depart="0" from="mainin" to="-road5">
        <stop parkingArea="ParkArea-5" duration="1000"/>
    </trip>
    <person id="v5.0p0" type="ped_pedestrian" depart="triggered">
        <ride from="mainin" to="road5" lines="v5.0"/>
        <walk busStop="cyber5to6stop"/>
        <ride to="cyberout" lines="taxi"/>
    </person>
    <person id="v-5.0p0" type="ped_pedestrian" depart="triggered">
        <ride from="mainin" to="-road5" lines="v-5.0"/>
        <walk busStop="cyber5to6stop"/>
        <ride to="cyberout" lines="taxi"/>
    </person>
    <trip id="v6.0" type="car" depart="0" from="mainin" to="road6">
        <stop parkingArea="ParkArea6" duration="1000"/>
    </trip>
    <trip id="v-6.0" type="car" depart="0" from="mainin" to="-road6">
        <stop parkingArea="ParkArea-6" duration="1000"/>
    </trip>
    <person id="v6.0p0" type="ped_pedestrian" depart="triggered">
        <ride from="mainin" to="road6" lines="v6.0"/>
        <walk busStop="cyber6to7stop"/>
        <ride to="cyberout" lines="taxi"/>
    </person>
    <person id="v-6.0p0" type="ped_pedestrian" depart="triggered">
        <ride from="mainin" to="-road6" lines="v-6.0"/>
        <walk busStop="cyber6to7stop"/>
        <ride to="cyberout" lines="taxi"/>
    </person>
    <person id="v6.0p1" type="ped_pedestrian" depart="triggered">
        <ride from="mainin" to="road6" lines="v6.0"/>
        <walk busStop="cyber6to7stop"/>
        <ride to="cyberout" lines="taxi"/>
    </person>
    <person id="v-6.0p1" type="ped_pedestrian" depart="triggered">
        <ride from="mainin" to="-road6" lines="v-6.0"/>
        <walk busStop="cyber6to7stop"/>
        <ride to="cyberout" lines="taxi"/>
    </person>
    <person id="v6.0p2" type="ped_pedestrian" depart="triggered">
        <ride from="mainin" to="road6" lines="v6.0"/>
        <walk busStop="cyber6to7stop"/>
        <ride to="cyberout" lines="taxi"/>
    </person>
    <person id="v-6.0p2" type="ped_pedestrian" depart="triggered">
        <ride from="mainin" to="-road6" lines="v-6.0"/>
        <walk busStop="cyber6to7stop"/>
        <ride to="cyberout" lines="taxi"/>
    </person>
    <trip id="v7.0" type="car" depart="0" from="mainin" to="road7">
        <stop parkingArea="ParkArea7" duration="1000"/>
    </trip>
    <trip id="v-7.0" type="car" depart="0" from="mainin" to="-road7">
        <stop parkingArea="ParkArea-7" duration="1000"/>
    </trip>
    <person id="v7.0p0" type="ped_pedestrian" depart="triggered">
        <ride from="mainin" to="road7" lines="v7.0"/>
        <walk busStop="cyber6to7stop"/>
        <ride to="cyberout" lines="taxi"/>
    </person>
    <person id="v-7.0p0" type="ped_pedestrian" depart="triggered">
        <ride from="mainin" to="-road7" lines="v-7.0"/>
        <walk busStop="cyber6to7stop"/>
        <ride to="cyberout" lines="taxi"/>
    </person>
    <trip id="v0.1" type="car" depart="15" from="mainin" to="road0">
        <stop parkingArea="ParkArea0" duration="1000"/>
    </trip>
    <trip id="v-0.1" type="car" depart="15" from="mainin" to="-road0">
        <stop parkingArea="ParkArea-0" duration="1000"/>
    </trip>
    <person id="v0.1p0" type="ped_pedestrian" depart="triggered">
        <ride from="mainin" to="road0" lines="v0.1"/>
        <walk busStop="cyber0to1stop"/>
        <ride to="cyberout" lines="taxi"/>
    </person>
    <person id="v-0.1p0" type="ped_pedestrian" depart="triggered">
        <ride from="mainin" to="-road0" lines="v-0.1"/>
        <walk busStop="cyber0to1stop"/>
        <ride to="cyberout" lines="taxi"/>
    </person>
    <person id="v0.1p1" type="ped_pedestrian" depart="triggered">
        <ride from="mainin" to="road0" lines="v0.1"/>
        <walk busStop="cyber0to1stop"/>
        <ride to="cyberout" lines="taxi"/>
    </person>
    <person id="v-0.1p1" type="ped_pedestrian" depart="triggered">
        <ride from="mainin" to="-road0" lines="v-0.1"/>
        <walk busStop="cyber0to1stop"/>
        <ride to="cyberout" lines="taxi"/>
    </person>
    <person id="v0.1p2" type="ped_pedestrian" depart="triggered">
        <ride from="mainin" to="road0" lines="v0.1"/>
        <walk busStop="cyber0to1stop"/>
        <ride to="cyberout" lines="taxi"/>
    </person>
    <person id="v-0.1p2" type="ped_pedestrian" depart="triggered">
        <ride from="mainin" to="-road0" lines="v-0.1"/>
        <walk busStop="cyber0to1stop"/>
        <ride to="cyberout" lines="taxi"/>
    </person>
    <trip id="v1.1" type="car" depart="15" from="mainin" to="road1">
        <stop parkingArea="ParkArea1" duration="1000"/>
    </trip>
    <trip id="v-1.1" type="car" depart="15" from="mainin" to="-road1">
        <stop parkingArea="ParkArea-1" duration="1000"/>
    </trip>
    <person id="v1.1p0" type="ped_pedestrian" depart="triggered">
        <ride from="mainin" to="road1" lines="v1.1"/>
        <walk busStop="cyber1to2stop"/>
        <ride to="cyberout" lines="taxi"/>
    </person>
    <person id="v-1.1p0" type="ped_pedestrian" depart="triggered">
        <ride from="mainin" to="-road1" lines="v-1.1"/>
        <walk busStop="cyber1to2stop"/>
        <ride to="cyberout" lines="taxi"/>
    </person>
    <person id="v1.1p1" type="ped_pedestrian" depart="triggered">
        <ride from="mainin" to="road1" lines="v1.1"/>
        <walk busStop="cyber1to2stop"/>
        <ride to="cyberout" lines="taxi"/>
    </person>
    <person id="v-1.1p1" type="ped_pedestrian" depart="triggered">
        <ride from="mainin" to="-road1" lines="v-1.1"/>
        <walk busStop="cyber1to2stop"/>
        <ride to="cyberout" lines="taxi"/>
    </person>
    <person id="v1.1p2" type="ped_pedestrian" depart="triggered">
        <ride from="mainin" to="road1" lines="v1.1"/>
        <walk busStop="cyber1to2stop"/>
        <ride to="cyberout" lines="taxi"/>
    </person>
    <person id="v-1.1p2" type="ped_pedestrian" depart="triggered">
        <ride from="mainin" to="-road1" lines="v-1.1"/>
        <walk busStop="cyber1to2stop"/>
        <ride to="cyberout" lines="taxi"/>
    </person>
    <trip id="v2.1" type="car" depart="15" from="mainin" to="road2">
        <stop parkingArea="ParkArea2" duration="1000"/>
    </trip>
    <trip id="v-2.1" type="car" depart="15" from="mainin" to="-road2">
        <stop parkingArea="ParkArea-2" duration="1000"/>
    </trip>
    <person id="v2.1p0" type="ped_pedestrian" depart="triggered">
        <ride from="mainin" to="road2" lines="v2.1"/>
        <walk busStop="cyber2to3stop"/>
        <ride to="cyberout" lines="taxi"/>
    </person>
    <person id="v-2.1p0" type="ped_pedestrian" depart="triggered">
        <ride from="mainin" to="-road2" lines="v-2.1"/>
        <walk busStop="cyber2to3stop"/>
        <ride to="cyberout" lines="taxi"/>
    </person>
    <person id="v2.1p1" type="ped_pedestrian" depart="triggered">
        <ride from="mainin" to="road2" lines="v2.1"/>
        <walk busStop="cyber2to3stop"/>
        <ride to="cyberout" lines="taxi"/>
    </person>
    <person id="v-2.1p1" type="ped_pedestrian" depart="triggered">
        <ride from="mainin" to="-road2" lines="v-2.1"/>
        <walk busStop="cyber2to3stop"/>
        <ride to="cyberout" lines="taxi"/>
    </person>
    <trip id="v3.1" type="car" depart="15" from="mainin" to="road3">
        <stop parkingArea="ParkArea3" duration="1000"/>
    </trip>
    <trip id="v-3.1" type="car" depart="15" from="mainin" to="-road3">
        <stop parkingArea="ParkArea-3" duration="1000"/>
    </trip>
    <person id="v3.1p0" type="ped_pedestrian" depart="triggered">
        <ride from="mainin" to="road3" lines="v3.1"/>
        <walk busStop="cyber3to4stop"/>
        <ride to="cyberout" lines="taxi"/>
    </person>
    <person id="v-3.1p0" type="ped_pedestrian" depart="triggered">
        <ride from="mainin" to="-road3" lines="v-3.1"/>
        <walk busStop="cyber3to4stop"/>
        <ride to="cyberout" lines="taxi"/>
    </person>
    <person id="v3.1p1" type="ped_pedestrian" depart="triggered">
        <ride from="mainin" to="road3" lines="v3.1"/>
        <walk busStop="cyber3to4stop"/>
        <ride to="cyberout" lines="taxi"/>
    </person>
    <person id="v-3.1p1" type="ped_pedestrian" depart="triggered">
        <ride from="mainin" to="-road3" lines="v-3.1"/>
        <walk busStop="cyber3to4stop"/>
        <ride to="cyberout" lines="taxi"/>
    </person>
    <person id="v3.1p2" type="ped_pedestrian" depart="triggered">
        <ride from="mainin" to="road3" lines="v3.1"/>
        <walk busStop="cyber3to4stop"/>
        <ride to="cyberout" lines="taxi"/>
    </person>
    <person id="v-3.1p2" type="ped_pedestrian" depart="triggered">
        <ride from="mainin" to="-road3" lines="v-3.1"/>
        <walk busStop="cyber3to4stop"/>
        <ride to="cyberout" lines="taxi"/>
    </person>
    <trip id="v4.1" type="car" depart="15" from="mainin" to="road4">
        <stop parkingArea="ParkArea4" duration="1000"/>
    </trip>
    <trip id="v-4.1" type="car" depart="15" from="mainin" to="-road4">
        <stop parkingArea="ParkArea-4" duration="1000"/>
    </trip>
    <person id="v4.1p0" type="ped_pedestrian" depart="triggered">
        <ride from="mainin" to="road4" lines="v4.1"/>
        <walk busStop="cyber4to5stop"/>
        <ride to="cyberout" lines="taxi"/>
    </person>
    <person id="v-4.1p0" type="ped_pedestrian" depart="triggered">
        <ride from="mainin" to="-road4" lines="v-4.1"/>
        <walk busStop="cyber4to5stop"/>
        <ride to="cyberout" lines="taxi"/>
    </person>
    <person id="v4.1p1" type="ped_pedestrian" depart="triggered">
        <ride from="mainin" to="road4" lines="v4.1"/>
        <walk busStop="cyber4to5stop"/>
        <ride to="cyberout" lines="taxi"/>
    </person>
    <person id="v-4.1p1" type="ped_pedestrian" depart="triggered">
        <ride from="mainin" to="-road4" lines="v-4.1"/>
        <walk busStop="cyber4to5stop"/>
        <ride to="cyberout" lines="taxi"/>
    </person>
    <person id="v4.1p2" type="ped_pedestrian" depart="triggered">
        <ride from="mainin" to="road4" lines="v4.1"/>
        <walk busStop="cyber4to5stop"/>
        <ride to="cyberout" lines="taxi"/>
    </person>
    <person id="v-4.1p2" type="ped_pedestrian" depart="triggered">
        <ride from="mainin" to="-road4" lines="v-4.1"/>
        <walk busStop="cyber4to5stop"/>
        <ride to="cyberout" lines="taxi"/>
    </person>
    <trip id="v5.1" type="car" depart="15" from="mainin" to="road5">
        <stop parkingArea="ParkArea5" duration="1000"/>
    </trip>
    <trip id="v-5.1" type="car" depart="15" from="mainin" to="-road5">
        <stop parkingArea="ParkArea-5" duration="1000"/>
    </trip>
    <person id="v5.1p0" type="ped_pedestrian" depart="triggered">
        <ride from="mainin" to="road5" lines="v5.1"/>
        <walk busStop="cyber5to6stop"/>
        <ride to="cyberout" lines="taxi"/>
    </person>
    <person id="v-5.1p0" type="ped_pedestrian" depart="triggered">
        <ride from="mainin" to="-road5" lines="v-5.1"/>
        <walk busStop="cyber5to6stop"/>
        <ride to="cyberout" lines="taxi"/>
    </person>
    <person id="v5.1p1" type="ped_pedestrian" depart="triggered">
        <ride from="mainin" to="road5" lines="v5.1"/>
        <walk busStop="cyber5to6stop"/>
        <ride to="cyberout" lines="taxi"/>
    </person>
    <person id="v-5.1p1" type="ped_pedestrian" depart="triggered">
        <ride from="mainin" to="-road5" lines="v-5.1"/>
        <walk busStop="cyber5to6stop"/>
        <ride to="cyberout" lines="taxi"/>
    </person>
    <person id="v5.1p2" type="ped_pedestrian" depart="triggered">
        <ride from="mainin" to="road5" lines="v5.1"/>
        <walk busStop="cyber5to6stop"/>
        <ride to="cyberout" lines="taxi"/>
    </person>
    <person id="v-5.1p2" type="ped_pedestrian" depart="triggered">
        <ride from="mainin" to="-road5" lines="v-5.1"/>
        <walk busStop="cyber5to6stop"/>
        <ride to="cyberout" lines="taxi"/>
    </person>
    <trip id="v6.1" type="car" depart="15" from="mainin" to="road6">
        <stop parkingArea="ParkArea6" duration="1000"/>
    </trip>
    <trip id="v-6.1" type="car" depart="15" from="mainin" to="-road6">
        <stop parkingArea="ParkArea-6" duration="1000"/>
    </trip>
    <person id="v6.1p0" type="ped_pedestrian" depart="triggered">
        <ride from="mainin" to="road6" lines="v6.1"/>
        <walk busStop="cyber6to7stop"/>
        <ride to="cyberout" lines="taxi"/>
    </person>
    <person id="v-6.1p0" type="ped_pedestrian" depart="triggered">
        <ride from="mainin" to="-road6" lines="v-6.1"/>
        <walk busStop="cyber6to7stop"/>
        <ride to="cyberout" lines="taxi"/>
    </person>
    <person id="v6.1p1" type="ped_pedestrian" depart="triggered">
        <ride from="mainin" to="road6" lines="v6.1"/>
        <walk busStop="cyber6to7stop"/>
        <ride to="cyberout" lines="taxi"/>
    </person>
    <person id="v-6.1p1" type="ped_pedestrian" depart="triggered">
        <ride from="mainin" to="-road6" lines="v-6.1"/>
        <walk busStop="cyber6to7stop"/>
        <ride to="cyberout" lines="taxi"/>
    </person>
    <trip id="v7.1" type="car" depart="15" from="mainin" to="road7">
        <stop parkingArea="ParkArea7" duration="1000"/>
    </trip>
    <trip id="v-7.1" type="car" depart="15" from="mainin" to="-road7">
        <stop parkingArea="ParkArea-7" duration="1000"/>
    </trip>
    <person id="v7.1p0" type="ped_pedestrian" depart="triggered">
        <ride from="mainin" to="road7" lines="v7.1"/>
        <walk busStop="cyber6to7stop"/>
        <ride to="cyberout" lines="taxi"/>
    </person>
    <person id="v-7.1p0" type="ped_pedestrian" depart="triggered">
        <ride from="mainin" to="-road7" lines="v-7.1"/>
        <walk busStop="cyber6to7stop"/>
        <ride to="cyberout" lines="taxi"/>
    </person>
    <person id="v7.1p1" type="ped_pedestrian" depart="triggered">
        <ride from="mainin" to="road7" lines="v7.1"/>
        <walk busStop="cyber6to7stop"/>
        <ride to="cyberout" lines="taxi"/>
    </person>
    <person id="v-7.1p1" type="ped_pedestrian" depart="triggered">
        <ride from="mainin" to="-road7" lines="v-7.1"/>
        <walk busStop="cyber6to7stop"/>
        <ride to="cyberout" lines="taxi"/>
    </person>
    <trip id="v0.2" type="car" depart="30" from="mainin" to="road0">
        <stop parkingArea="ParkArea0" duration="1000"/>
    </trip>
    <trip id="v-0.2" type="car" depart="30" from="mainin" to="-road0">
        <stop parkingArea="ParkArea-0" duration="1000"/>
    </trip>
    <person id="v0.2p0" type="ped_pedestrian" depart="triggered">
        <ride from="mainin" to="road0" lines="v0.2"/>
        <walk busStop="cyber0to1stop"/>
        <ride to="cyberout" lines="taxi"/>
    </person>
    <person id="v-0.2p0" type="ped_pedestrian" depart="triggered">
        <ride from="mainin" to="-road0" lines="v-0.2"/>
        <walk busStop="cyber0to1stop"/>
        <ride to="cyberout" lines="taxi"/>
    </person>
    <person id="v0.2p1" type="ped_pedestrian" depart="triggered">
        <ride from="mainin" to="road0" lines="v0.2"/>
        <walk busStop="cyber0to1stop"/>
        <ride to="cyberout" lines="taxi"/>
    </person>
    <person id="v-0.2p1" type="ped_pedestrian" depart="triggered">
        <ride from="mainin" to="-road0" lines="v-0.2"/>
        <walk busStop="cyber0to1stop"/>
        <ride to="cyberout" lines="taxi"/>
    </person>
    <person id="v0.2p2" type="ped_pedestrian" depart="triggered">
        <ride from="mainin" to="road0" lines="v0.2"/>
        <walk busStop="cyber0to1stop"/>
        <ride to="cyberout" lines="taxi"/>
    </person>
    <person id="v-0.2p2" type="ped_pedestrian" depart="triggered">
        <ride from="mainin" to="-road0" lines="v-0.2"/>
        <walk busStop="cyber0to1stop"/>
        <ride to="cyberout" lines="taxi"/>
    </person>
    <trip id="v1.2" type="car" depart="30" from="mainin" to="road1">
        <stop parkingArea="ParkArea1" duration="1000"/>
    </trip>
    <trip id="v-1.2" type="car" depart="30" from="mainin" to="-road1">
        <stop parkingArea="ParkArea-1" duration="1000"/>
    </trip>
    <person id="v1.2p0" type="ped_pedestrian" depart="triggered">
        <ride from="mainin" to="road1" lines="v1.2"/>
        <walk busStop="cyber1to2stop"/>
        <ride to="cyberout" lines="taxi"/>
    </person>
    <person id="v-1.2p0" type="ped_pedestrian" depart="triggered">
        <ride from="mainin" to="-road1" lines="v-1.2"/>
        <walk busStop="cyber1to2stop"/>
        <ride to="cyberout" lines="taxi"/>
    </person>
    <person id="v1.2p1" type="ped_pedestrian" depart="triggered">
        <ride from="mainin" to="road1" lines="v1.2"/>
        <walk busStop="cyber1to2stop"/>
        <ride to="cyberout" lines="taxi"/>
    </person>
    <person id="v-1.2p1" type="ped_pedestrian" depart="triggered">
        <ride from="mainin" to="-road1" lines="v-1.2"/>
        <walk busStop="cyber1to2stop"/>
        <ride to="cyberout" lines="taxi"/>
    </person>
    <person id="v1.2p2" type="ped_pedestrian" depart="triggered">
        <ride from="mainin" to="road1" lines="v1.2"/>
        <walk busStop="cyber1to2stop"/>
        <ride to="cyberout" lines="taxi"/>
    </person>
    <person id="v-1.2p2" type="ped_pedestrian" depart="triggered">
        <ride from="mainin" to="-road1" lines="v-1.2"/>
        <walk busStop="cyber1to2stop"/>
        <ride to="cyberout" lines="taxi"/>
    </person>
    <trip id="v2.2" type="car" depart="30" from="mainin" to="road2">
        <stop parkingArea="ParkArea2" duration="1000"/>
    </trip>
    <trip id="v-2.2" type="car" depart="30" from="mainin" to="-road2">
        <stop parkingArea="ParkArea-2" duration="1000"/>
    </trip>
    <person id="v2.2p0" type="ped_pedestrian" depart="triggered">
        <ride from="mainin" to="road2" lines="v2.2"/>
        <walk busStop="cyber2to3stop"/>
        <ride to="cyberout" lines="taxi"/>
    </person>
    <person id="v-2.2p0" type="ped_pedestrian" depart="triggered">
        <ride from="mainin" to="-road2" lines="v-2.2"/>
        <walk busStop="cyber2to3stop"/>
        <ride to="cyberout" lines="taxi"/>
    </person>
    <person id="v2.2p1" type="ped_pedestrian" depart="triggered">
        <ride from="mainin" to="road2" lines="v2.2"/>
        <walk busStop="cyber2to3stop"/>
        <ride to="cyberout" lines="taxi"/>
    </person>
    <person id="v-2.2p1" type="ped_pedestrian" depart="triggered">
        <ride from="mainin" to="-road2" lines="v-2.2"/>
        <walk busStop="cyber2to3stop"/>
        <ride to="cyberout" lines="taxi"/>
    </person>
    <trip id="v3.2" type="car" depart="30" from="mainin" to="road3">
        <stop parkingArea="ParkArea3" duration="1000"/>
    </trip>
    <trip id="v-3.2" type="car" depart="30" from="mainin" to="-road3">
        <stop parkingArea="ParkArea-3" duration="1000"/>
    </trip>
    <person id="v3.2p0" type="ped_pedestrian" depart="triggered">
        <ride from="mainin" to="road3" lines="v3.2"/>
        <walk busStop="cyber3to4stop"/>
        <ride to="cyberout" lines="taxi"/>
    </person>
    <person id="v-3.2p0" type="ped_pedestrian" depart="triggered">
        <ride from="mainin" to="-road3" lines="v-3.2"/>
        <walk busStop="cyber3to4stop"/>
        <ride to="cyberout" lines="taxi"/>
    </person>
    <person id="v3.2p1" type="ped_pedestrian" depart="triggered">
        <ride from="mainin" to="road3" lines="v3.2"/>
        <walk busStop="cyber3to4stop"/>
        <ride to="cyberout" lines="taxi"/>
    </person>
    <person id="v-3.2p1" type="ped_pedestrian" depart="triggered">
        <ride from="mainin" to="-road3" lines="v-3.2"/>
        <walk busStop="cyber3to4stop"/>
        <ride to="cyberout" lines="taxi"/>
    </person>
    <trip id="v4.2" type="car" depart="30" from="mainin" to="road4">
        <stop parkingArea="ParkArea4" duration="1000"/>
    </trip>
    <trip id="v-4.2" type="car" depart="30" from="mainin" to="-road4">
        <stop parkingArea="ParkArea-4" duration="1000"/>
    </trip>
    <person id="v4.2p0" type="ped_pedestrian" depart="triggered">
        <ride from="mainin" to="road4" lines="v4.2"/>
        <walk busStop="cyber4to5stop"/>
        <ride to="cyberout" lines="taxi"/>
    </person>
    <person id="v-4.2p0" type="ped_pedestrian" depart="triggered">
        <ride from="mainin" to="-road4" lines="v-4.2"/>
        <walk busStop="cyber4to5stop"/>
        <ride to="cyberout" lines="taxi"/>
    </person>
    <person id="v4.2p1" type="ped_pedestrian" depart="triggered">
        <ride from="mainin" to="road4" lines="v4.2"/>
        <walk busStop="cyber4to5stop"/>
        <ride to="cyberout" lines="taxi"/>
    </person>
    <person id="v-4.2p1" type="ped_pedestrian" depart="triggered">
        <ride from="mainin" to="-road4" lines="v-4.2"/>
        <walk busStop="cyber4to5stop"/>
        <ride to="cyberout" lines="taxi"/>
    </person>
    <trip id="v5.2" type="car" depart="30" from="mainin" to="road5">
        <stop parkingArea="ParkArea5" duration="1000"/>
    </trip>
    <trip id="v-5.2" type="car" depart="30" from="mainin" to="-road5">
        <stop parkingArea="ParkArea-5" duration="1000"/>
    </trip>
    <person id="v5.2p0" type="ped_pedestrian" depart="triggered">
        <ride from="mainin" to="road5" lines="v5.2"/>
        <walk busStop="cyber5to6stop"/>
        <ride to="cyberout" lines="taxi"/>
    </person>
    <person id="v-5.2p0" type="ped_pedestrian" depart="triggered">
        <ride from="mainin" to="-road5" lines="v-5.2"/>
        <walk busStop="cyber5to6stop"/>
        <ride to="cyberout" lines="taxi"/>
    </person>
    <trip id="v6.2" type="car" depart="30" from="mainin" to="road6">
        <stop parkingArea="ParkArea6" duration="1000"/>
    </trip>
    <trip id="v-6.2" type="car" depart="30" from="mainin" to="-road6">
        <stop parkingArea="ParkArea-6" duration="1000"/>
    </trip>
    <person id="v6.2p0" type="ped_pedestrian" depart="triggered">
        <ride from="mainin" to="road6" lines="v6.2"/>
        <walk busStop="cyber6to7stop"/>
        <ride to="cyberout" lines="taxi"/>
    </person>
    <person id="v-6.2p0" type="ped_pedestrian" depart="triggered">
        <ride from="mainin" to="-road6" lines="v-6.2"/>
        <walk busStop="cyber6to7stop"/>
        <ride to="cyberout" lines="taxi"/>
    </person>
    <person id="v6.2p1" type="ped_pedestrian" depart="triggered">
        <ride from="mainin" to="road6" lines="v6.2"/>
        <walk busStop="cyber6to7stop"/>
        <ride to="cyberout" lines="taxi"/>
    </person>
    <person id="v-6.2p1" type="ped_pedestrian" depart="triggered">
        <ride from="mainin" to="-road6" lines="v-6.2"/>
        <walk busStop="cyber6to7stop"/>
        <ride to="cyberout" lines="taxi"/>
    </person>
    <trip id="v7.2" type="car" depart="30" from="mainin" to="road7">
        <stop parkingArea="ParkArea7" duration="1000"/>
    </trip>
    <trip id="v-7.2" type="car" depart="30" from="mainin" to="-road7">
        <stop parkingArea="ParkArea-7" duration="1000"/>
    </trip>
    <person id="v7.2p0" type="ped_pedestrian" depart="triggered">
        <ride from="mainin" to="road7" lines="v7.2"/>
        <walk busStop="cyber6to7stop"/>
        <ride to="cyberout" lines="taxi"/>
    </person>
    <person id="v-7.2p0" type="ped_pedestrian" depart="triggered">
        <ride from="mainin" to="-road7" lines="v-7.2"/>
        <walk busStop="cyber6to7stop"/>
        <ride to="cyberout" lines="taxi"/>
    </person>
    <trip id="v0.3" type="car" depart="45" from="mainin" to="road0">
        <stop parkingArea="ParkArea0" duration="1000"/>
    </trip>
    <trip id="v-0.3" type="car" depart="45" from="mainin" to="-road0">
        <stop parkingArea="ParkArea-0" duration="1000"/>
    </trip>
    <person id="v0.3p0" type="ped_pedestrian" depart="triggered">
        <ride from="mainin" to="road0" lines="v0.3"/>
        <walk busStop="cyber0to1stop"/>
        <ride to="cyberout" lines="taxi"/>
    </person>
    <person id="v-0.3p0" type="ped_pedestrian" depart="triggered">
        <ride from="mainin" to="-road0" lines="v-0.3"/>
        <walk busStop="cyber0to1stop"/>
        <ride to="cyberout" lines="taxi"/>
    </person>
    <person id="v0.3p1" type="ped_pedestrian" depart="triggered">
        <ride from="mainin" to="road0" lines="v0.3"/>
        <walk busStop="cyber0to1stop"/>
        <ride to="cyberout" lines="taxi"/>
    </person>
    <person id="v-0.3p1" type="ped_pedestrian" depart="triggered">
        <ride from="mainin" to="-road0" lines="v-0.3"/>