<?xml version="1.0" encoding="UTF-8"?>

<!-- generated on 11/13/20 00:05:28 by Eclipse SUMO GUI Version 1.7.0
-->

<configuration xmlns:xsi="http://www.w3.org/2001/XMLSchema-instance" xsi:noNamespaceSchemaLocation="http://sumo.dlr.de/xsd/sumoConfiguration.xsd">

    <input>
        <net-file value="threeEdges_OneCar.net.xml"/>
        <route-files value="threeEdges_Onecar.rou.xml"/>
        <additional-files value="threeEdges_OneCar_Parking.add.xml"/>
    </input>

</configuration>
