<?xml version="1.0" encoding="UTF-8"?>

<!-- generated on 10/08/20 14:12:47 by Eclipse SUMO netedit Version 1.7.0
<configuration xmlns:xsi="http://www.w3.org/2001/XMLSchema-instance" xsi:noNamespaceSchemaLocation="http://sumo.dlr.de/xsd/netconvertConfiguration.xsd">

    <input>
        <sumo-net-file value="C:\Users\Sandrus\Documents\Research\SUMO\SUMO_DEMOS\4SumoTutorial-DrivingInCircles\circles.net.xml"/>
    </input>

    <output>
        <output-file value="C:\Users\Sandrus\Documents\Research\SUMO\SUMO_DEMOS\4SumoTutorial-DrivingInCircles\circles.net.xml"/>
    </output>

    <processing>
        <geometry.min-radius.fix.railways value="false"/>
        <geometry.max-grade.fix value="false"/>
        <offset.disable-normalization value="true"/>
        <lefthand value="false"/>
    </processing>

    <junctions>
        <no-turnarounds value="true"/>
        <junctions.corner-detail value="5"/>
        <junctions.limit-turn-speed value="5.5"/>
        <rectangular-lane-cut value="false"/>
    </junctions>

    <pedestrian>
        <walkingareas value="false"/>
    </pedestrian>

    <report>
        <aggregate-warnings value="5"/>
    </report>

</configuration>
-->

<net version="1.6" junctionCornerDetail="5" limitTurnSpeed="5.50" xmlns:xsi="http://www.w3.org/2001/XMLSchema-instance" xsi:noNamespaceSchemaLocation="http://sumo.dlr.de/xsd/net_file.xsd">

    <location netOffset="0.00,0.00" convBoundary="-19.70,26.19,102.38,97.40" origBoundary="-10000000000.00,-10000000000.00,10000000000.00,10000000000.00" projParameter="!"/>

    <edge id=":gneJ0_0" function="internal">
        <lane id=":gneJ0_0_0" index="0" speed="6.52" length="8.61" shape="-13.16,52.04 -14.93,53.57 -15.84,55.31 -15.88,57.28 -15.04,59.46"/>
    </edge>
    <edge id=":gneJ1_0" function="internal">
        <lane id=":gneJ1_0_0" index="0" speed="6.55" length="4.00" shape="-0.07,89.98 -1.04,89.65 -1.88,89.15 -2.59,88.48 -3.17,87.63"/>
    </edge>
    <edge id=":gneJ1_1" function="internal">
        <lane id=":gneJ1_1_0" index="0" speed="4.15" length="1.33" shape="-0.36,86.09 -0.17,86.37 0.07,86.59 0.35,86.76 0.67,86.87"/>
    </edge>
    <edge id=":gneJ2_0" function="internal">
        <lane id=":gneJ2_0_0" index="0" speed="13.89" length="1.22" shape="38.54,98.99 38.18,99.00 37.93,98.98 37.69,98.94 37.33,98.86"/>
    </edge>
    <edge id=":gneJ2_1" function="internal">
        <lane id=":gneJ2_1_0" index="0" speed="13.89" length="0.41" shape="38.07,95.75 38.19,95.78 38.27,95.79 38.35,95.79 38.47,95.79"/>
    </edge>
    <edge id=":gneJ3_0" function="internal">
        <lane id=":gneJ3_0_0" index="0" speed="6.48" length="4.23" shape="82.49,96.35 81.74,97.13 80.87,97.69 79.90,98.04 78.82,98.17"/>
    </edge>
    <edge id=":gneJ3_1" function="internal">
        <lane id=":gneJ3_1_0" index="0" speed="4.11" length="1.41" shape="78.76,94.97 79.12,94.93 79.44,94.81 79.73,94.62 79.98,94.36"/>
    </edge>
    <edge id=":gneJ4_0" function="internal">
        <lane id=":gneJ4_0_0" index="0" speed="6.67" length="6.48" shape="98.23,71.28 99.11,69.83 99.50,68.34 99.39,66.80 98.80,65.21"/>
    </edge>
    <edge id=":gneJ5_0" function="internal">
        <lane id=":gneJ5_0_0" index="0" speed="4.04" length="1.60" shape="82.29,33.68 82.06,33.34 81.77,33.08 81.42,32.91 81.02,32.83"/>
    </edge>
    <edge id=":gneJ6_0" function="internal">
        <lane id=":gneJ6_0_0" index="0" speed="4.38" length="1.07" shape="25.19,27.88 24.87,27.86 24.66,27.88 24.45,27.96 24.18,28.13"/>
    </edge>

    <edge id="-gneE0" from="gneJ1" to="gneJ0" priority="-1">
        <lane id="-gneE0_0" index="0" speed="13.89" length="30.40" shape="-3.17,87.63 -17.85,61.01"/>
    </edge>
    <edge id="-gneE1" from="gneJ2" to="gneJ1" priority="-1">
        <lane id="-gneE1_0" index="0" speed="13.89" length="38.44" shape="37.33,98.86 -0.07,89.98"/>
    </edge>
    <edge id="-gneE2" from="gneJ3" to="gneJ2" priority="-1">
        <lane id="-gneE2_0" index="0" speed="13.89" length="40.29" shape="78.82,98.17 38.54,98.99"/>
    </edge>
    <edge id="-gneE3" from="gneJ4" to="gneJ3" priority="-1">
        <lane id="-gneE3_0" index="0" speed="13.89" length="29.42" shape="100.74,73.27 82.49,96.35"/>
    </edge>
    <edge id="gneE0" from="gneJ0" to="gneJ1" priority="-1">
        <lane id="gneE0_0" index="0" speed="13.89" length="30.40" shape="-15.04,59.46 -0.36,86.09"/>
    </edge>
    <edge id="gneE1" from="gneJ1" to="gneJ2" priority="-1">
        <lane id="gneE1_0" index="0" speed="13.89" length="38.44" shape="0.67,86.87 38.07,95.75"/>
    </edge>
    <edge id="gneE2" from="gneJ2" to="gneJ3" priority="-1">
        <lane id="gneE2_0" index="0" speed="13.89" length="40.29" shape="38.47,95.79 78.76,94.97"/>
    </edge>
    <edge id="gneE3" from="gneJ3" to="gneJ4" priority="-1">
        <lane id="gneE3_0" index="0" speed="13.89" length="29.42" shape="79.98,94.36 98.23,71.28"/>
    </edge>
    <edge id="gneE4" from="gneJ4" to="gneJ5" priority="-1">
        <lane id="gneE4_0" index="0" speed="13.89" length="35.59" shape="98.80,65.21 82.29,33.68"/>
    </edge>
    <edge id="gneE5" from="gneJ5" to="gneJ6" priority="-1">
        <lane id="gneE5_0" index="0" speed="13.89" length="56.05" shape="81.02,32.83 25.19,27.88"/>
    </edge>
    <edge id="gneE6" from="gneJ6" to="gneJ0" priority="-1">
        <lane id="gneE6_0" index="0" speed="13.89" length="44.34" shape="24.18,28.13 -13.16,52.04"/>
    </edge>

    <junction id="gneJ0" type="priority" x="-19.70" y="54.33" incLanes="-gneE0_0 gneE6_0" intLanes=":gneJ0_0_0" shape="-19.25,61.78 -13.64,58.69 -14.30,56.64 -14.21,55.72 -13.85,54.88 -13.21,54.10 -12.30,53.39 -14.02,50.69 -16.49,52.49 -18.33,54.31 -19.52,56.15 -20.07,58.01 -19.98,59.88">
        <request index="0" response="0" foes="0" cont="0"/>
    </junction>
    <junction id="gneJ1" type="priority" x="-1.08" y="88.10" incLanes="-gneE1_0 gneE0_0" intLanes=":gneJ1_0_0 :gneJ1_1_0" shape="-0.44,91.54 1.04,85.31 -4.57,88.40 -3.50,89.86 -2.85,90.43 -2.12,90.90 -1.32,91.27">
        <request index="0" response="00" foes="00" cont="0"/>
        <request index="1" response="00" foes="00" cont="0"/>
    </junction>
    <junction id="gneJ2" type="priority" x="38.10" y="97.40" incLanes="-gneE2_0 gneE1_0" intLanes=":gneJ2_0_0 :gneJ2_1_0" shape="38.57,100.59 38.44,94.19 36.96,100.42 37.55,100.55 37.76,100.58 37.97,100.60 38.23,100.60">
        <request index="0" response="00" foes="00" cont="0"/>
        <request index="1" response="00" foes="00" cont="0"/>
    </junction>
    <junction id="gneJ3" type="priority" x="80.30" y="96.54" incLanes="-gneE3_0 gneE2_0" intLanes=":gneJ3_0_0 :gneJ3_1_0" shape="83.75,97.34 78.73,93.37 78.86,99.77 80.74,99.47 81.59,99.13 82.37,98.66 83.09,98.07">
        <request index="0" response="00" foes="00" cont="0"/>
        <request index="1" response="00" foes="00" cont="0"/>
    </junction>
    <junction id="gneJ4" type="priority" x="102.38" y="68.61" incLanes="gneE3_0" intLanes=":gneJ4_0_0" shape="100.21,64.47 97.38,65.95 97.87,67.46 97.88,68.19 97.73,68.90 97.43,69.60 96.97,70.29 101.99,74.26 102.69,72.04 102.55,70.54 102.10,68.78 101.32,66.75">
        <request index="0" response="0" foes="0" cont="0"/>
    </junction>
    <junction id="gneJ5" type="priority" x="82.90" y="31.39" incLanes="gneE4_0" intLanes=":gneJ5_0_0" shape="80.88,34.42 83.71,32.94 83.07,32.06 82.67,31.74 82.22,31.49 81.71,31.33 81.16,31.24">
        <request index="0" response="0" foes="0" cont="0"/>
    </junction>
    <junction id="gneJ6" type="priority" x="24.24" y="26.19" incLanes="gneE5_0" intLanes=":gneJ6_0_0" shape="25.05,29.47 25.33,26.29 24.54,26.25 24.26,26.29 24.00,26.38 23.70,26.54 23.32,26.78">
        <request index="0" response="0" foes="0" cont="0"/>
    </junction>

    <connection from="-gneE1" to="-gneE0" fromLane="0" toLane="0" via=":gneJ1_0_0" dir="l" state="M"/>
    <connection from="-gneE2" to="-gneE1" fromLane="0" toLane="0" via=":gneJ2_0_0" dir="s" state="M"/>
    <connection from="-gneE3" to="-gneE2" fromLane="0" toLane="0" via=":gneJ3_0_0" dir="l" state="M"/>
    <connection from="gneE0" to="gneE1" fromLane="0" toLane="0" via=":gneJ1_1_0" dir="r" state="M"/>
    <connection from="gneE1" to="gneE2" fromLane="0" toLane="0" via=":gneJ2_1_0" dir="s" state="M"/>
    <connection from="gneE2" to="gneE3" fromLane="0" toLane="0" via=":gneJ3_1_0" dir="r" state="M"/>
    <connection from="gneE3" to="gneE4" fromLane="0" toLane="0" via=":gneJ4_0_0" dir="r" state="M"/>
    <connection from="gneE4" to="gneE5" fromLane="0" toLane="0" via=":gneJ5_0_0" dir="r" state="M"/>
    <connection from="gneE5" to="gneE6" fromLane="0" toLane="0" via=":gneJ6_0_0" dir="s" state="M"/>
    <connection from="gneE6" to="gneE0" fromLane="0" toLane="0" via=":gneJ0_0_0" dir="r" state="M"/>

    <connection from=":gneJ0_0" to="gneE0" fromLane="0" toLane="0" dir="r" state="M"/>
    <connection from=":gneJ1_0" to="-gneE0" fromLane="0" toLane="0" dir="l" state="M"/>
    <connection from=":gneJ1_1" to="gneE1" fromLane="0" toLane="0" dir="r" state="M"/>
    <connection from=":gneJ2_0" to="-gneE1" fromLane="0" toLane="0" dir="s" state="M"/>
    <connection from=":gneJ2_1" to="gneE2" fromLane="0" toLane="0" dir="s" state="M"/>
    <connection from=":gneJ3_0" to="-gneE2" fromLane="0" toLane="0" dir="l" state="M"/>
    <connection from=":gneJ3_1" to="gneE3" fromLane="0" toLane="0" dir="r" state="M"/>
    <connection from=":gneJ4_0" to="gneE4" fromLane="0" toLane="0" dir="r" state="M"/>
    <connection from=":gneJ5_0" to="gneE5" fromLane="0" toLane="0" dir="r" state="M"/>
    <connection from=":gneJ6_0" to="gneE6" fromLane="0" toLane="0" dir="s" state="M"/>

</net>
