<?xml version="1.0" encoding="UTF-8"?>

<!-- generated on 11/23/20 00:50:35 by Eclipse SUMO netedit Version 1.7.0
<configuration xmlns:xsi="http://www.w3.org/2001/XMLSchema-instance" xsi:noNamespaceSchemaLocation="http://sumo.dlr.de/xsd/netconvertConfiguration.xsd">

    <output>
        <output-file value="C:\Users\Sandrus\Documents\Research\SUMO\SUMO_DEMOS\TraCI_ini\demo.net.xml"/>
    </output>

    <processing>
        <offset.disable-normalization value="true"/>
    </processing>

    <junctions>
        <no-turnarounds value="true"/>
    </junctions>

    <netedit>
        <route-files value="C:\Users\Sandrus\Documents\Research\SUMO\SUMO_DEMOS\TraCI_ini\demo.rou.xml"/>
    </netedit>

    <report>
        <aggregate-warnings value="5"/>
    </report>

</configuration>
-->

<routes xmlns:xsi="http://www.w3.org/2001/XMLSchema-instance" xsi:noNamespaceSchemaLocation="http://sumo.dlr.de/xsd/routes_file.xsd">
    <vType id="car" maxSpeed="10.00" accel="3.5" decel="2.2" sigma="1"/>
    <vType id="ev" length="7.00" minGap="0.20" maxSpeed="20.00" speedFactor="normc(2.00,0.00)" vClass="emergency" guiShape="emergency" accel="5.5" decel="2.2" sigma="1.0"/>

    <route id="route_0" edges="e9 e1 e2 e3 e4 e5 e6 e7 e8" />
    <flow id="carflow" type="car" begin="0" end="0" number="5" from="e9" to="e8" />

    <!--<vehicle id="0" type="car" route="route_0" depart="0" />-->

</routes>
