<?xml version="1.0" encoding="UTF-8"?>

<!-- generated on 11/23/20 01:05:03 by Eclipse SUMO netedit Version 1.7.0
<configuration xmlns:xsi="http://www.w3.org/2001/XMLSchema-instance" xsi:noNamespaceSchemaLocation="http://sumo.dlr.de/xsd/netconvertConfiguration.xsd">

    <input>
        <sumo-net-file value="C:\Users\Sandrus\Documents\Research\SUMO\SUMO_DEMOS\TraCI_ini\demo.net.xml"/>
    </input>

    <output>
        <output-file value="C:\Users\Sandrus\Documents\Research\SUMO\SUMO_DEMOS\TraCI_ini\demo.net.xml"/>
    </output>

    <processing>
        <geometry.min-radius.fix.railways value="false"/>
        <geometry.max-grade.fix value="false"/>
        <offset.disable-normalization value="true"/>
        <lefthand value="false"/>
    </processing>

    <junctions>
        <no-turnarounds value="true"/>
        <junctions.corner-detail value="5"/>
        <junctions.limit-turn-speed value="5.5"/>
        <rectangular-lane-cut value="false"/>
    </junctions>

    <pedestrian>
        <walkingareas value="false"/>
    </pedestrian>

    <report>
        <aggregate-warnings value="5"/>
    </report>

</configuration>
-->

<net version="1.6" junctionCornerDetail="5" limitTurnSpeed="5.50" xmlns:xsi="http://www.w3.org/2001/XMLSchema-instance" xsi:noNamespaceSchemaLocation="http://sumo.dlr.de/xsd/net_file.xsd">

    <location netOffset="0.00,0.00" convBoundary="-7.36,15.80,80.52,86.15" origBoundary="-10000000000.00,-10000000000.00,10000000000.00,10000000000.00" projParameter="!"/>

    <edge id=":gneJ0_0" function="internal">
        <lane id=":gneJ0_0_0" index="0" speed="5.53" length="9.47" shape="16.64,62.68 13.71,63.02 12.28,64.09 12.33,65.87 13.87,68.38"/>
    </edge>
    <edge id=":gneJ0_1" function="internal">
        <lane id=":gneJ0_1_0" index="0" speed="7.38" length="18.09" shape="16.66,59.48 11.07,60.13 8.32,62.17 8.42,65.58 11.36,70.38"/>
    </edge>
    <edge id=":gneJ0_2" function="internal">
        <lane id=":gneJ0_2_0" index="0" speed="8.85" length="26.70" shape="16.67,56.28 8.42,57.24 4.37,60.25 4.51,65.29 8.86,72.37"/>
    </edge>
    <edge id=":gneJ0_3" function="internal">
        <lane id=":gneJ0_3_0" index="0" speed="13.18" length="21.65" shape="2.28,50.31 2.71,52.39 4.79,56.10 8.51,61.43 13.87,68.38"/>
    </edge>
    <edge id=":gneJ0_4" function="internal">
        <lane id=":gneJ0_4_0" index="0" speed="13.89" length="24.61" shape="-0.79,49.39 -0.50,52.25 1.63,56.71 5.58,62.75 11.36,70.38"/>
    </edge>
    <edge id=":gneJ0_5" function="internal">
        <lane id=":gneJ0_5_0" index="0" speed="13.89" length="27.60" shape="-3.85,48.46 -3.71,52.11 -1.54,57.31 2.65,64.07 8.86,72.37"/>
    </edge>
    <edge id=":gneJ1_0" function="internal">
        <lane id=":gneJ1_0_0" index="0" speed="4.24" length="3.75" shape="17.49,72.94 17.72,73.21 17.93,73.38 18.17,73.47 18.53,73.53"/>
        <lane id=":gneJ1_0_1" index="1" speed="6.72" length="3.75" shape="14.98,74.93 15.69,75.77 16.30,76.25 17.03,76.52 18.11,76.70"/>
        <lane id=":gneJ1_0_2" index="2" speed="8.51" length="3.75" shape="12.48,76.92 13.66,78.32 14.67,79.13 15.89,79.57 17.69,79.87"/>
    </edge>
    <edge id=":gneJ2_0" function="internal">
        <lane id=":gneJ2_0_0" index="0" speed="4.24" length="1.26" shape="50.20,77.71 50.57,77.74 50.83,77.72 51.07,77.61 51.37,77.40"/>
    </edge>
    <edge id=":gneJ2_1" function="internal">
        <lane id=":gneJ2_1_0" index="0" speed="6.71" length="3.78" shape="49.78,80.88 50.88,80.99 51.66,80.92 52.38,80.60 53.29,79.96"/>
    </edge>
    <edge id=":gneJ2_2" function="internal">
        <lane id=":gneJ2_2_0" index="0" speed="8.49" length="6.30" shape="49.36,84.05 51.20,84.23 52.50,84.12 53.69,83.58 55.20,82.53"/>
    </edge>
    <edge id=":gneJ3_0" function="internal">
        <lane id=":gneJ3_0_0" index="0" speed="4.04" length="1.61" shape="71.52,62.32 71.82,62.04 72.03,61.71 72.14,61.34 72.16,60.92"/>
    </edge>
    <edge id=":gneJ3_1" function="internal">
        <lane id=":gneJ3_1_0" index="0" speed="6.34" length="4.82" shape="73.44,64.88 74.35,64.03 74.97,63.05 75.30,61.94 75.35,60.69"/>
    </edge>
    <edge id=":gneJ3_2" function="internal">
        <lane id=":gneJ3_2_0" index="0" speed="8.01" length="8.03" shape="75.35,67.45 76.87,66.03 77.90,64.39 78.46,62.53 78.54,60.46"/>
    </edge>
    <edge id=":gneJ4_0" function="internal">
        <lane id=":gneJ4_0_0" index="0" speed="4.23" length="1.27" shape="70.45,37.65 70.41,37.28 70.33,37.03 70.18,36.81 69.91,36.56"/>
    </edge>
    <edge id=":gneJ4_1" function="internal">
        <lane id=":gneJ4_1_0" index="0" speed="6.69" length="3.82" shape="73.64,37.42 73.52,36.30 73.29,35.55 72.82,34.91 72.01,34.15"/>
    </edge>
    <edge id=":gneJ4_2" function="internal">
        <lane id=":gneJ4_2_0" index="0" speed="8.47" length="6.37" shape="76.83,37.18 76.64,35.33 76.25,34.07 75.47,33.00 74.11,31.73"/>
    </edge>
    <edge id=":gneJ5_0" function="internal">
        <lane id=":gneJ5_0_0" index="0" speed="4.29" length="3.53" shape="55.72,24.22 55.45,24.00 55.24,23.88 55.00,23.83 54.66,23.83"/>
        <lane id=":gneJ5_0_1" index="1" speed="6.82" length="3.53" shape="57.82,21.80 57.02,21.15 56.38,20.79 55.67,20.65 54.63,20.63"/>
        <lane id=":gneJ5_0_2" index="2" speed="8.63" length="3.53" shape="59.92,19.39 58.59,18.30 57.53,17.70 56.33,17.46 54.61,17.43"/>
    </edge>
    <edge id=":gneJ6_0" function="internal">
        <lane id=":gneJ6_0_0" index="0" speed="13.89" length="1.86" shape="28.55,24.01 28.37,24.01 28.24,24.02 28.12,24.06 27.95,24.13"/>
        <lane id=":gneJ6_0_1" index="1" speed="9.31" length="1.86" shape="28.53,20.81 27.98,20.82 27.60,20.86 27.24,20.97 26.73,21.17"/>
        <lane id=":gneJ6_0_2" index="2" speed="11.90" length="1.86" shape="28.51,17.61 27.59,17.62 26.96,17.70 26.35,17.88 25.50,18.22"/>
    </edge>
    <edge id=":gneJ7_0" function="internal">
        <lane id=":gneJ7_0_0" index="0" speed="4.11" length="1.42" shape="8.34,32.27 8.02,32.44 7.76,32.67 7.56,32.95 7.42,33.28"/>
    </edge>
    <edge id=":gneJ7_1" function="internal">
        <lane id=":gneJ7_1_0" index="0" speed="6.48" length="4.25" shape="7.12,29.31 6.16,29.83 5.38,30.51 4.78,31.35 4.36,32.36"/>
    </edge>
    <edge id=":gneJ7_2" function="internal">
        <lane id=":gneJ7_2_0" index="0" speed="8.18" length="7.08" shape="5.89,26.36 4.29,27.22 2.99,28.35 2.00,29.76 1.30,31.43"/>
    </edge>

    <edge id="e1" from="gneJ0" to="gneJ1" priority="-1">
        <lane id="e1_0" index="0" speed="13.89" length="5.82" shape="13.87,68.38 17.49,72.94"/>
        <lane id="e1_1" index="1" speed="13.89" length="5.82" shape="11.36,70.38 14.98,74.93"/>
        <lane id="e1_2" index="2" speed="13.89" length="5.82" shape="8.86,72.37 12.48,76.92"/>
    </edge>
    <edge id="e2" from="gneJ1" to="gneJ2" priority="-1">
        <lane id="e2_0" index="0" speed="13.89" length="31.94" shape="18.53,73.53 50.20,77.71"/>
        <lane id="e2_1" index="1" speed="13.89" length="31.94" shape="18.11,76.70 49.78,80.88"/>
        <lane id="e2_2" index="2" speed="13.89" length="31.94" shape="17.69,79.87 49.36,84.05"/>
    </edge>
    <edge id="e3" from="gneJ2" to="gneJ3" priority="-1">
        <lane id="e3_0" index="0" speed="13.89" length="25.17" shape="51.37,77.40 71.52,62.32"/>
        <lane id="e3_1" index="1" speed="13.89" length="25.17" shape="53.29,79.96 73.44,64.88"/>
        <lane id="e3_2" index="2" speed="13.89" length="25.17" shape="55.20,82.53 75.35,67.45"/>
    </edge>
    <edge id="e4" from="gneJ3" to="gneJ4" priority="-1">
        <lane id="e4_0" index="0" speed="13.89" length="23.34" shape="72.16,60.92 70.45,37.65"/>
        <lane id="e4_1" index="1" speed="13.89" length="23.34" shape="75.35,60.69 73.64,37.42"/>
        <lane id="e4_2" index="2" speed="13.89" length="23.34" shape="78.54,60.46 76.83,37.18"/>
    </edge>
    <edge id="e5" from="gneJ4" to="gneJ5" priority="-1">
        <lane id="e5_0" index="0" speed="13.89" length="18.80" shape="69.91,36.56 55.72,24.22"/>
        <lane id="e5_1" index="1" speed="13.89" length="18.80" shape="72.01,34.15 57.82,21.80"/>
        <lane id="e5_2" index="2" speed="13.89" length="18.80" shape="74.11,31.73 59.92,19.39"/>
    </edge>
    <edge id="e6" from="gneJ5" to="gneJ6" priority="-1">
        <lane id="e6_0" index="0" speed="13.89" length="26.10" shape="54.66,23.83 28.55,24.01"/>
        <lane id="e6_1" index="1" speed="13.89" length="26.10" shape="54.63,20.63 28.53,20.81"/>
        <lane id="e6_2" index="2" speed="13.89" length="26.10" shape="54.61,17.43 28.51,17.61"/>
    </edge>
    <edge id="e7" from="gneJ6" to="gneJ7" priority="-1">
        <lane id="e7_0" index="0" speed="13.89" length="21.23" shape="27.95,24.13 8.34,32.27"/>
        <lane id="e7_1" index="1" speed="13.89" length="21.23" shape="26.73,21.17 7.12,29.31"/>
        <lane id="e7_2" index="2" speed="13.89" length="21.23" shape="25.50,18.22 5.89,26.36"/>
    </edge>
    <edge id="e8" from="gneJ7" to="gneJ0" priority="-1">
        <lane id="e8_0" index="0" speed="13.89" length="17.79" shape="7.42,33.28 2.28,50.31"/>
        <lane id="e8_1" index="1" speed="13.89" length="17.79" shape="4.36,32.36 -0.79,49.39"/>
        <lane id="e8_2" index="2" speed="13.89" length="17.79" shape="1.30,31.43 -3.85,48.46"/>
    </edge>
    <edge id="e9" from="gneJ9" to="gneJ0" priority="-1">
        <lane id="e9_0" index="0" speed="13.89" length="14.71" shape="31.35,62.76 16.64,62.68"/>
        <lane id="e9_1" index="1" speed="13.89" length="14.71" shape="31.36,59.56 16.66,59.48"/>
        <lane id="e9_2" index="2" speed="13.89" length="14.71" shape="31.38,56.36 16.67,56.28"/>
    </edge>

    <junction id="gneJ0" type="priority" x="-7.36" y="54.55" incLanes="e9_0 e9_1 e9_2 e8_0 e8_1 e8_2" intLanes=":gneJ0_0_0 :gneJ0_1_0 :gneJ0_2_0 :gneJ0_3_0 :gneJ0_4_0 :gneJ0_5_0" shape="7.61,73.37 15.12,67.39 14.18,65.65 14.25,65.05 14.68,64.62 15.48,64.36 16.63,64.28 16.68,54.68 12.43,54.55 9.02,54.21 6.45,53.67 4.73,52.91 3.85,51.95 3.81,50.78 -5.38,48.00 -5.57,50.52 -4.82,53.73 -3.12,57.62 -0.49,62.18 3.09,67.43">
        <request index="0" response="000000" foes="111000" cont="0"/>
        <request index="1" response="000000" foes="111000" cont="0"/>
        <request index="2" response="000000" foes="111000" cont="0"/>
        <request index="3" response="000111" foes="000111" cont="0"/>
        <request index="4" response="000111" foes="000111" cont="0"/>
        <request index="5" response="000111" foes="000111" cont="0"/>
    </junction>
    <junction id="gneJ1" type="priority" x="13.64" y="80.95" incLanes="e1_0 e1_1 e1_2" intLanes=":gneJ1_0_0 :gneJ1_0_1 :gneJ1_0_2" shape="17.48,81.46 18.74,71.94 11.23,77.92 13.05,79.98 13.86,80.57 14.77,80.96 15.94,81.23">
        <request index="0" response="000" foes="000" cont="0"/>
        <request index="1" response="000" foes="000" cont="0"/>
        <request index="2" response="000" foes="000" cont="0"/>
    </junction>
    <junction id="gneJ2" type="priority" x="53.03" y="86.15" incLanes="e2_0 e2_1 e2_2" intLanes=":gneJ2_0_0 :gneJ2_1_0 :gneJ2_2_0" shape="56.16,83.81 50.41,76.12 49.15,85.64 51.92,85.86 52.92,85.71 53.85,85.35 54.88,84.73">
        <request index="0" response="000" foes="000" cont="0"/>
        <request index="1" response="000" foes="000" cont="0"/>
        <request index="2" response="000" foes="000" cont="0"/>
    </junction>
    <junction id="gneJ3" type="priority" x="80.52" y="65.58" incLanes="e3_0 e3_1 e3_2" intLanes=":gneJ3_0_0 :gneJ3_1_0 :gneJ3_2_0" shape="80.14,60.34 70.56,61.04 76.31,68.73 78.61,66.40 79.37,65.06 79.88,63.60 80.14,62.03">
        <request index="0" response="000" foes="000" cont="0"/>
        <request index="1" response="000" foes="000" cont="0"/>
        <request index="2" response="000" foes="000" cont="0"/>
    </junction>
    <junction id="gneJ4" type="priority" x="78.14" y="33.12" incLanes="e4_0 e4_1 e4_2" intLanes=":gneJ4_0_0 :gneJ4_1_0 :gneJ4_2_0" shape="68.85,37.77 78.43,37.06 78.07,34.28 77.73,33.33 77.17,32.48 76.34,31.59 75.16,30.52">
        <request index="0" response="000" foes="000" cont="0"/>
        <request index="1" response="000" foes="000" cont="0"/>
        <request index="2" response="000" foes="000" cont="0"/>
    </junction>
    <junction id="gneJ5" type="priority" x="58.23" y="15.80" incLanes="e5_0 e5_1 e5_2" intLanes=":gneJ5_0_0 :gneJ5_0_1 :gneJ5_0_2" shape="54.67,25.43 60.97,18.18 58.93,16.58 58.10,16.16 57.19,15.93 56.07,15.84 54.60,15.83">
        <request index="0" response="000" foes="000" cont="0"/>
        <request index="1" response="000" foes="000" cont="0"/>
        <request index="2" response="000" foes="000" cont="0"/>
    </junction>
    <junction id="gneJ6" type="priority" x="26.62" y="16.02" incLanes="e6_0 e6_1 e6_2" intLanes=":gneJ6_0_0 :gneJ6_0_1 :gneJ6_0_2" shape="28.57,25.61 28.50,16.01 27.12,16.05 26.64,16.11 26.17,16.24 25.62,16.44 24.89,16.74">
        <request index="0" response="000" foes="000" cont="0"/>
        <request index="1" response="000" foes="000" cont="0"/>
        <request index="2" response="000" foes="000" cont="0"/>
    </junction>
    <junction id="gneJ7" type="priority" x="1.08" y="26.62" incLanes="e7_0 e7_1 e7_2" intLanes=":gneJ7_0_0 :gneJ7_1_0 :gneJ7_2_0" shape="8.96,33.75 5.28,24.88 2.80,26.33 1.80,27.27 0.96,28.36 0.28,29.59 -0.23,30.97">
        <request index="0" response="000" foes="000" cont="0"/>
        <request index="1" response="000" foes="000" cont="0"/>
        <request index="2" response="000" foes="000" cont="0"/>
    </junction>
    <junction id="gneJ9" type="dead_end" x="31.39" y="54.76" incLanes="" intLanes="" shape="31.39,54.76 31.34,64.36"/>

    <connection from="e1" to="e2" fromLane="0" toLane="0" via=":gneJ1_0_0" dir="s" state="M"/>
    <connection from="e1" to="e2" fromLane="1" toLane="1" via=":gneJ1_0_1" dir="s" state="M"/>
    <connection from="e1" to="e2" fromLane="2" toLane="2" via=":gneJ1_0_2" dir="s" state="M"/>
    <connection from="e2" to="e3" fromLane="0" toLane="0" via=":gneJ2_0_0" dir="r" state="M"/>
    <connection from="e2" to="e3" fromLane="1" toLane="1" via=":gneJ2_1_0" dir="r" state="M"/>
    <connection from="e2" to="e3" fromLane="2" toLane="2" via=":gneJ2_2_0" dir="r" state="M"/>
    <connection from="e3" to="e4" fromLane="0" toLane="0" via=":gneJ3_0_0" dir="r" state="M"/>
    <connection from="e3" to="e4" fromLane="1" toLane="1" via=":gneJ3_1_0" dir="r" state="M"/>
    <connection from="e3" to="e4" fromLane="2" toLane="2" via=":gneJ3_2_0" dir="r" state="M"/>
    <connection from="e4" to="e5" fromLane="0" toLane="0" via=":gneJ4_0_0" dir="r" state="M"/>
    <connection from="e4" to="e5" fromLane="1" toLane="1" via=":gneJ4_1_0" dir="r" state="M"/>
    <connection from="e4" to="e5" fromLane="2" toLane="2" via=":gneJ4_2_0" dir="r" state="M"/>
    <connection from="e5" to="e6" fromLane="0" toLane="0" via=":gneJ5_0_0" dir="s" state="M"/>
    <connection from="e5" to="e6" fromLane="1" toLane="1" via=":gneJ5_0_1" dir="s" state="M"/>
    <connection from="e5" to="e6" fromLane="2" toLane="2" via=":gneJ5_0_2" dir="s" state="M"/>
    <connection from="e6" to="e7" fromLane="0" toLane="0" via=":gneJ6_0_0" dir="s" state="M"/>
    <connection from="e6" to="e7" fromLane="1" toLane="1" via=":gneJ6_0_1" dir="s" state="M"/>
    <connection from="e6" to="e7" fromLane="2" toLane="2" via=":gneJ6_0_2" dir="s" state="M"/>
    <connection from="e7" to="e8" fromLane="0" toLane="0" via=":gneJ7_0_0" dir="r" state="M"/>
    <connection from="e7" to="e8" fromLane="1" toLane="1" via=":gneJ7_1_0" dir="r" state="M"/>
    <connection from="e7" to="e8" fromLane="2" toLane="2" via=":gneJ7_2_0" dir="r" state="M"/>
    <connection from="e8" to="e1" fromLane="0" toLane="0" via=":gneJ0_3_0" dir="r" state="m"/>
    <connection from="e8" to="e1" fromLane="1" toLane="1" via=":gneJ0_4_0" dir="r" state="m"/>
    <connection from="e8" to="e1" fromLane="2" toLane="2" via=":gneJ0_5_0" dir="r" state="m"/>
    <connection from="e9" to="e1" fromLane="0" toLane="0" via=":gneJ0_0_0" dir="r" state="M"/>
    <connection from="e9" to="e1" fromLane="1" toLane="1" via=":gneJ0_1_0" dir="r" state="M"/>
    <connection from="e9" to="e1" fromLane="2" toLane="2" via=":gneJ0_2_0" dir="r" state="M"/>

    <connection from=":gneJ0_0" to="e1" fromLane="0" toLane="0" dir="r" state="M"/>
    <connection from=":gneJ0_1" to="e1" fromLane="0" toLane="1" dir="r" state="M"/>
    <connection from=":gneJ0_2" to="e1" fromLane="0" toLane="2" dir="r" state="M"/>
    <connection from=":gneJ0_3" to="e1" fromLane="0" toLane="0" dir="r" state="M"/>
    <connection from=":gneJ0_4" to="e1" fromLane="0" toLane="1" dir="r" state="M"/>
    <connection from=":gneJ0_5" to="e1" fromLane="0" toLane="2" dir="r" state="M"/>
    <connection from=":gneJ1_0" to="e2" fromLane="0" toLane="0" dir="s" state="M"/>
    <connection from=":gneJ1_0" to="e2" fromLane="1" toLane="1" dir="s" state="M"/>
    <connection from=":gneJ1_0" to="e2" fromLane="2" toLane="2" dir="s" state="M"/>
    <connection from=":gneJ2_0" to="e3" fromLane="0" toLane="0" dir="r" state="M"/>
    <connection from=":gneJ2_1" to="e3" fromLane="0" toLane="1" dir="r" state="M"/>
    <connection from=":gneJ2_2" to="e3" fromLane="0" toLane="2" dir="r" state="M"/>
    <connection from=":gneJ3_0" to="e4" fromLane="0" toLane="0" dir="r" state="M"/>
    <connection from=":gneJ3_1" to="e4" fromLane="0" toLane="1" dir="r" state="M"/>
    <connection from=":gneJ3_2" to="e4" fromLane="0" toLane="2" dir="r" state="M"/>
    <connection from=":gneJ4_0" to="e5" fromLane="0" toLane="0" dir="r" state="M"/>
    <connection from=":gneJ4_1" to="e5" fromLane="0" toLane="1" dir="r" state="M"/>
    <connection from=":gneJ4_2" to="e5" fromLane="0" toLane="2" dir="r" state="M"/>
    <connection from=":gneJ5_0" to="e6" fromLane="0" toLane="0" dir="s" state="M"/>
    <connection from=":gneJ5_0" to="e6" fromLane="1" toLane="1" dir="s" state="M"/>
    <connection from=":gneJ5_0" to="e6" fromLane="2" toLane="2" dir="s" state="M"/>
    <connection from=":gneJ6_0" to="e7" fromLane="0" toLane="0" dir="s" state="M"/>
    <connection from=":gneJ6_0" to="e7" fromLane="1" toLane="1" dir="s" state="M"/>
    <connection from=":gneJ6_0" to="e7" fromLane="2" toLane="2" dir="s" state="M"/>
    <connection from=":gneJ7_0" to="e8" fromLane="0" toLane="0" dir="r" state="M"/>
    <connection from=":gneJ7_1" to="e8" fromLane="0" toLane="1" dir="r" state="M"/>
    <connection from=":gneJ7_2" to="e8" fromLane="0" toLane="2" dir="r" state="M"/>

</net>
