<additional>
    <e1Detector id="det_1a" lane="e1a_0" pos="-20" freq="300" file="det.out.xml" />
</additional>