<?xml version="1.0" encoding="UTF-8"?>

<!-- generated on 12/11/20 18:42:08 by Eclipse SUMO netedit Version 1.7.0
<configuration xmlns:xsi="http://www.w3.org/2001/XMLSchema-instance" xsi:noNamespaceSchemaLocation="http://sumo.dlr.de/xsd/netconvertConfiguration.xsd">

    <input>
        <sumo-net-file value="C:\Users\Sandrus\Documents\Research\SUMO\SUMO_DEMOS\Intersections\Instersections_vel0_TraCI\vel0.net.xml"/>
    </input>

    <output>
        <output-file value="C:\Users\Sandrus\Documents\Research\SUMO\SUMO_DEMOS\Intersections\Instersections_vel0_TraCI\vel0.net.xml"/>
    </output>

    <processing>
        <geometry.min-radius.fix.railways value="false"/>
        <geometry.max-grade.fix value="false"/>
        <offset.disable-normalization value="true"/>
        <lefthand value="false"/>
    </processing>

    <junctions>
        <no-turnarounds value="true"/>
        <junctions.corner-detail value="5"/>
        <junctions.limit-turn-speed value="5.5"/>
        <rectangular-lane-cut value="false"/>
    </junctions>

    <pedestrian>
        <walkingareas value="false"/>
    </pedestrian>

    <report>
        <aggregate-warnings value="5"/>
    </report>

</configuration>
-->

<net version="1.6" junctionCornerDetail="5" limitTurnSpeed="5.50" xmlns:xsi="http://www.w3.org/2001/XMLSchema-instance" xsi:noNamespaceSchemaLocation="http://sumo.dlr.de/xsd/net_file.xsd">

    <location netOffset="0.00,0.00" convBoundary="-751.96,-834.38,703.33,82.30" origBoundary="-10000000000.00,-10000000000.00,10000000000.00,10000000000.00" projParameter="!"/>

    <edge id=":n0_0" function="internal">
        <lane id=":n0_0_0" index="0" speed="6.51" length="9.04" shape="31.68,-348.95 31.33,-351.40 30.28,-353.15 28.53,-354.20 26.08,-354.55"/>
    </edge>
    <edge id=":n0_1" function="internal">
        <lane id=":n0_1_0" index="0" speed="13.89" length="20.80" shape="31.68,-348.95 31.68,-369.76"/>
        <lane id=":n0_1_1" index="1" speed="13.89" length="20.80" shape="34.88,-348.95 34.88,-369.75"/>
    </edge>
    <edge id=":n0_3" function="internal">
        <lane id=":n0_3_0" index="0" speed="9.26" length="6.96" shape="34.88,-348.95 35.63,-354.21 36.48,-355.62"/>
    </edge>
    <edge id=":n0_16" function="internal">
        <lane id=":n0_16_0" index="0" speed="9.26" length="12.40" shape="36.48,-355.62 37.88,-357.96 41.64,-360.20 46.89,-360.95"/>
    </edge>
    <edge id=":n0_4" function="internal">
        <lane id=":n0_4_0" index="0" speed="6.50" length="9.03" shape="46.88,-354.55 44.43,-354.20 42.68,-353.15 41.63,-351.40 41.28,-348.95"/>
    </edge>
    <edge id=":n0_5" function="internal">
        <lane id=":n0_5_0" index="0" speed="13.89" length="20.81" shape="46.88,-354.55 26.08,-354.55"/>
        <lane id=":n0_5_1" index="1" speed="13.89" length="20.81" shape="46.89,-357.75 26.08,-357.75"/>
    </edge>
    <edge id=":n0_7" function="internal">
        <lane id=":n0_7_0" index="0" speed="9.26" length="19.36" shape="46.89,-357.75 41.63,-358.50 37.88,-360.76 35.63,-364.51 34.88,-369.75"/>
    </edge>
    <edge id=":n0_8" function="internal">
        <lane id=":n0_8_0" index="0" speed="6.51" length="9.04" shape="41.28,-369.75 41.63,-367.30 42.69,-365.55 44.44,-364.50 46.89,-364.15"/>
    </edge>
    <edge id=":n0_9" function="internal">
        <lane id=":n0_9_0" index="0" speed="13.89" length="20.80" shape="41.28,-369.75 41.28,-348.95"/>
        <lane id=":n0_9_1" index="1" speed="13.89" length="20.80" shape="38.08,-369.75 38.08,-348.95"/>
    </edge>
    <edge id=":n0_11" function="internal">
        <lane id=":n0_11_0" index="0" speed="9.26" length="6.95" shape="38.08,-369.75 37.33,-364.51 36.48,-363.09"/>
    </edge>
    <edge id=":n0_17" function="internal">
        <lane id=":n0_17_0" index="0" speed="9.26" length="12.40" shape="36.48,-363.09 35.08,-360.76 31.33,-358.51 26.08,-357.75"/>
    </edge>
    <edge id=":n0_12" function="internal">
        <lane id=":n0_12_0" index="0" speed="6.51" length="9.04" shape="26.07,-364.15 28.53,-364.50 30.28,-365.56 31.33,-367.31 31.68,-369.76"/>
    </edge>
    <edge id=":n0_13" function="internal">
        <lane id=":n0_13_0" index="0" speed="13.89" length="20.82" shape="26.07,-364.15 46.89,-364.15"/>
        <lane id=":n0_13_1" index="1" speed="13.89" length="20.82" shape="26.07,-360.95 46.89,-360.95"/>
    </edge>
    <edge id=":n0_15" function="internal">
        <lane id=":n0_15_0" index="0" speed="9.26" length="19.36" shape="26.07,-360.95 31.33,-360.21 35.08,-357.96 37.33,-354.21 38.08,-348.95"/>
    </edge>

    <edge id="-e1" from="n0" to="n1" priority="-1">
        <lane id="-e1_0" index="0" speed="13.89" length="431.25" shape="41.28,-348.95 41.28,82.30"/>
        <lane id="-e1_1" index="1" speed="13.89" length="431.25" shape="38.08,-348.95 38.08,82.30"/>
    </edge>
    <edge id="-e2" from="n2" to="n0" priority="-1">
        <lane id="-e2_0" index="0" speed="13.89" length="656.44" shape="703.32,-353.67 46.88,-354.55"/>
        <lane id="-e2_1" index="1" speed="13.89" length="656.44" shape="703.33,-356.87 46.89,-357.75"/>
    </edge>
    <edge id="-e3" from="n3" to="n0" priority="-1">
        <lane id="-e3_0" index="0" speed="13.89" length="464.63" shape="41.45,-834.38 41.28,-369.75"/>
        <lane id="-e3_1" index="1" speed="13.89" length="464.63" shape="38.25,-834.38 38.08,-369.75"/>
    </edge>
    <edge id="-e4" from="n4" to="n0" priority="-1">
        <lane id="-e4_0" index="0" speed="13.89" length="778.04" shape="-751.96,-363.66 26.07,-364.15"/>
        <lane id="-e4_1" index="1" speed="13.89" length="778.04" shape="-751.96,-360.46 26.07,-360.95"/>
    </edge>
    <edge id="e1" from="n1" to="n0" priority="-1">
        <lane id="e1_0" index="0" speed="13.89" length="431.25" shape="31.68,82.30 31.68,-348.95"/>
        <lane id="e1_1" index="1" speed="13.89" length="431.25" shape="34.88,82.30 34.88,-348.95"/>
    </edge>
    <edge id="e2" from="n0" to="n2" priority="-1">
        <lane id="e2_0" index="0" speed="13.89" length="656.44" shape="46.89,-364.15 703.34,-363.27"/>
        <lane id="e2_1" index="1" speed="13.89" length="656.44" shape="46.89,-360.95 703.33,-360.07"/>
    </edge>
    <edge id="e3" from="n0" to="n3" priority="-1">
        <lane id="e3_0" index="0" speed="13.89" length="464.63" shape="31.68,-369.76 31.85,-834.38"/>
        <lane id="e3_1" index="1" speed="13.89" length="464.63" shape="34.88,-369.75 35.05,-834.38"/>
    </edge>
    <edge id="e4" from="n0" to="n4" priority="-1">
        <lane id="e4_0" index="0" speed="13.89" length="778.04" shape="26.08,-354.55 -751.96,-354.06"/>
        <lane id="e4_1" index="1" speed="13.89" length="778.04" shape="26.08,-357.75 -751.96,-357.26"/>
    </edge>

    <junction id="n0" type="priority" x="36.48" y="-359.36" incLanes="e1_0 e1_1 -e2_0 -e2_1 -e3_0 -e3_1 -e4_0 -e4_1" intLanes=":n0_0_0 :n0_1_0 :n0_1_1 :n0_16_0 :n0_4_0 :n0_5_0 :n0_5_1 :n0_7_0 :n0_8_0 :n0_9_0 :n0_9_1 :n0_17_0 :n0_12_0 :n0_13_0 :n0_13_1 :n0_15_0" shape="30.08,-348.95 42.88,-348.95 43.32,-351.17 43.88,-351.95 44.66,-352.50 45.66,-352.84 46.88,-352.95 46.90,-365.75 44.67,-366.19 43.89,-366.75 43.33,-367.53 42.99,-368.53 42.88,-369.75 30.08,-369.76 29.64,-367.53 29.08,-366.76 28.30,-366.20 27.30,-365.87 26.07,-365.75 26.08,-352.95 28.30,-352.51 29.08,-351.95 29.64,-351.18 29.97,-350.17">
        <request index="0"  response="0000000000000000" foes="0000000001100000" cont="0"/>
        <request index="1"  response="0000000000000000" foes="1111100011100000" cont="0"/>
        <request index="2"  response="0000000000000000" foes="1111100011100000" cont="0"/>
        <request index="3"  response="0000011000000000" foes="1110011011100000" cont="1"/>
        <request index="4"  response="0000011000000000" foes="0000011000000000" cont="0"/>
        <request index="5"  response="0000111000001111" foes="1000111000001111" cont="0"/>
        <request index="6"  response="0000111000001111" foes="1000111000001111" cont="0"/>
        <request index="7"  response="0110111000001110" foes="0110111000001110" cont="0"/>
        <request index="8"  response="0000000000000000" foes="0110000000000000" cont="0"/>
        <request index="9"  response="0000000000000000" foes="1110000011111000" cont="0"/>
        <request index="10" response="0000000000000000" foes="1110000011111000" cont="0"/>
        <request index="11" response="0000000000000110" foes="1110000011100110" cont="1"/>
        <request index="12" response="0000000000000110" foes="0000000000000110" cont="0"/>
        <request index="13" response="0000111100001110" foes="0000111110001110" cont="0"/>
        <request index="14" response="0000111100001110" foes="0000111110001110" cont="0"/>
        <request index="15" response="0000111001101110" foes="0000111001101110" cont="0"/>
    </junction>
    <junction id="n1" type="dead_end" x="36.48" y="82.30" incLanes="-e1_0 -e1_1" intLanes="" shape="36.48,82.30 42.88,82.30 36.48,82.30"/>
    <junction id="n2" type="dead_end" x="703.33" y="-358.47" incLanes="e2_0 e2_1" intLanes="" shape="703.33,-358.47 703.34,-364.87 703.33,-358.47"/>
    <junction id="n3" type="dead_end" x="36.65" y="-834.38" incLanes="e3_0 e3_1" intLanes="" shape="36.65,-834.38 30.25,-834.38 36.65,-834.38"/>
    <junction id="n4" type="dead_end" x="-751.96" y="-358.86" incLanes="e4_0 e4_1" intLanes="" shape="-751.96,-358.86 -751.96,-352.46 -751.96,-358.86"/>

    <junction id=":n0_16_0" type="internal" x="36.48" y="-355.62" incLanes=":n0_3_0 -e3_0 -e3_1" intLanes=":n0_5_0 :n0_5_1 :n0_7_0 :n0_8_0 :n0_9_0 :n0_9_1 :n0_13_0 :n0_13_1 :n0_15_0"/>
    <junction id=":n0_17_0" type="internal" x="36.48" y="-363.09" incLanes=":n0_11_0 e1_0 e1_1" intLanes=":n0_0_0 :n0_1_0 :n0_1_1 :n0_5_0 :n0_5_1 :n0_7_0 :n0_13_0 :n0_13_1 :n0_15_0"/>

    <connection from="-e2" to="-e1" fromLane="0" toLane="0" via=":n0_4_0" dir="r" state="m"/>
    <connection from="-e2" to="e4" fromLane="0" toLane="0" via=":n0_5_0" dir="s" state="m"/>
    <connection from="-e2" to="e4" fromLane="1" toLane="1" via=":n0_5_1" dir="s" state="m"/>
    <connection from="-e2" to="e3" fromLane="1" toLane="1" via=":n0_7_0" dir="l" state="m"/>
    <connection from="-e3" to="e2" fromLane="0" toLane="0" via=":n0_8_0" dir="r" state="M"/>
    <connection from="-e3" to="-e1" fromLane="0" toLane="0" via=":n0_9_0" dir="s" state="M"/>
    <connection from="-e3" to="-e1" fromLane="1" toLane="1" via=":n0_9_1" dir="s" state="M"/>
    <connection from="-e3" to="e4" fromLane="1" toLane="1" via=":n0_11_0" dir="l" state="m"/>
    <connection from="-e4" to="e3" fromLane="0" toLane="0" via=":n0_12_0" dir="r" state="m"/>
    <connection from="-e4" to="e2" fromLane="0" toLane="0" via=":n0_13_0" dir="s" state="m"/>
    <connection from="-e4" to="e2" fromLane="1" toLane="1" via=":n0_13_1" dir="s" state="m"/>
    <connection from="-e4" to="-e1" fromLane="1" toLane="1" via=":n0_15_0" dir="l" state="m"/>
    <connection from="e1" to="e4" fromLane="0" toLane="0" via=":n0_0_0" dir="r" state="M"/>
    <connection from="e1" to="e3" fromLane="0" toLane="0" via=":n0_1_0" dir="s" state="M"/>
    <connection from="e1" to="e3" fromLane="1" toLane="1" via=":n0_1_1" dir="s" state="M"/>
    <connection from="e1" to="e2" fromLane="1" toLane="1" via=":n0_3_0" dir="l" state="m"/>

    <connection from=":n0_0" to="e4" fromLane="0" toLane="0" dir="r" state="M"/>
    <connection from=":n0_1" to="e3" fromLane="0" toLane="0" dir="s" state="M"/>
    <connection from=":n0_1" to="e3" fromLane="1" toLane="1" dir="s" state="M"/>
    <connection from=":n0_3" to="e2" fromLane="0" toLane="1" via=":n0_16_0" dir="l" state="m"/>
    <connection from=":n0_16" to="e2" fromLane="0" toLane="1" dir="l" state="M"/>
    <connection from=":n0_4" to="-e1" fromLane="0" toLane="0" dir="r" state="M"/>
    <connection from=":n0_5" to="e4" fromLane="0" toLane="0" dir="s" state="M"/>
    <connection from=":n0_5" to="e4" fromLane="1" toLane="1" dir="s" state="M"/>
    <connection from=":n0_7" to="e3" fromLane="0" toLane="1" dir="l" state="M"/>
    <connection from=":n0_8" to="e2" fromLane="0" toLane="0" dir="r" state="M"/>
    <connection from=":n0_9" to="-e1" fromLane="0" toLane="0" dir="s" state="M"/>
    <connection from=":n0_9" to="-e1" fromLane="1" toLane="1" dir="s" state="M"/>
    <connection from=":n0_11" to="e4" fromLane="0" toLane="1" via=":n0_17_0" dir="l" state="m"/>
    <connection from=":n0_17" to="e4" fromLane="0" toLane="1" dir="l" state="M"/>
    <connection from=":n0_12" to="e3" fromLane="0" toLane="0" dir="r" state="M"/>
    <connection from=":n0_13" to="e2" fromLane="0" toLane="0" dir="s" state="M"/>
    <connection from=":n0_13" to="e2" fromLane="1" toLane="1" dir="s" state="M"/>
    <connection from=":n0_15" to="-e1" fromLane="0" toLane="1" dir="l" state="M"/>

</net>
