<?xml version="1.0" encoding="UTF-8"?>

<!-- generated on 02/10/21 23:52:49 by Eclipse SUMO netedit Version 1.7.0
<configuration xmlns:xsi="http://www.w3.org/2001/XMLSchema-instance" xsi:noNamespaceSchemaLocation="http://sumo.dlr.de/xsd/netconvertConfiguration.xsd">

    <input>
        <sumo-net-file value="C:\Users\Sandrus\Documents\Research\SUMO\SUMO_DEMOS\Paper\reducingEmissions_VE\caseVE.net.xml"/>
    </input>

    <output>
        <output-file value="C:\Users\Sandrus\Documents\Research\SUMO\SUMO_DEMOS\Paper\reducingEmissions_VE\caseVE.net.xml"/>
    </output>

    <processing>
        <geometry.min-radius.fix.railways value="false"/>
        <geometry.max-grade.fix value="false"/>
        <offset.disable-normalization value="true"/>
        <lefthand value="false"/>
    </processing>

    <junctions>
        <no-turnarounds value="true"/>
        <junctions.corner-detail value="5"/>
        <junctions.limit-turn-speed value="5.5"/>
        <rectangular-lane-cut value="false"/>
    </junctions>

    <pedestrian>
        <walkingareas value="false"/>
    </pedestrian>

    <netedit>
        <route-files value="C:\Users\Sandrus\Documents\Research\SUMO\SUMO_DEMOS\Paper\reducingEmissions_VE\caseVE.rou.xml"/>
    </netedit>

    <report>
        <aggregate-warnings value="5"/>
    </report>

</configuration>
-->

<routes xmlns:xsi="http://www.w3.org/2001/XMLSchema-instance" xsi:noNamespaceSchemaLocation="http://sumo.dlr.de/xsd/routes_file.xsd">
    <vType id="authority" vClass="authority" guiShape="passenger" color="red"/>
    <vType id="eVehicle" vClass="evehicle" guiShape="evehicle" color="green"/>
    <vType id="normalVehicle" vClass="passenger" guiShape="passenger" color="0,0,128"/>
    <vType id="prueba" emissionClass="HBEFA3/PC_D_EU6" color="black"/>
    <vType id="vType_0"/>
    <trip id="veh0" type="normalVehicle" depart="3.00" color="yellow" from="-D" to="B"/>
    <trip id="veh1" type="eVehicle" depart="7.00" color="yellow" from="-F" to="H"/>
    <trip id="veh2" type="normalVehicle" depart="7.00" color="yellow" from="-F" to="H"/>
    <trip id="veh3" type="eVehicle" depart="24.00" color="yellow" from="-H" to="F"/>
    <trip id="veh4" type="eVehicle" depart="34.00" color="yellow" from="-F" to="H"/>
    <trip id="veh5" type="normalVehicle" depart="35.00" color="yellow" from="-F" to="H"/>
    <trip id="veh6" type="eVehicle" depart="38.00" color="yellow" from="-E" to="G"/>
    <trip id="veh7" type="normalVehicle" depart="39.00" color="yellow" from="-B" to="D"/>
    <trip id="veh8" type="eVehicle" depart="66.00" color="yellow" from="-E" to="G"/>
    <trip id="veh9" type="normalVehicle" depart="85.00" color="yellow" from="-A" to="C"/>
    <trip id="veh10" type="eVehicle" depart="93.00" color="yellow" from="-A" to="C"/>
    <trip id="veh11" type="eVehicle" depart="103.00" color="yellow" from="-E" to="G"/>
    <trip id="veh12" type="normalVehicle" depart="105.00" color="yellow" from="-B" to="D"/>
    <trip id="veh13" type="normalVehicle" depart="107.00" color="yellow" from="-B" to="D"/>
    <trip id="veh14" type="eVehicle" depart="117.00" color="yellow" from="-C" to="A"/>
    <trip id="veh15" type="eVehicle" depart="122.00" color="yellow" from="-H" to="F"/>
    <trip id="veh16" type="normalVehicle" depart="123.00" color="yellow" from="-G" to="E"/>
    <trip id="veh17" type="normalVehicle" depart="127.00" color="yellow" from="-B" to="D"/>
    <trip id="veh18" type="eVehicle" depart="154.00" color="yellow" from="-A" to="C"/>
    <trip id="veh19" type="eVehicle" depart="166.00" color="yellow" from="-F" to="H"/>
    <trip id="veh20" type="normalVehicle" depart="170.00" color="yellow" from="-G" to="E"/>
    <trip id="veh21" type="normalVehicle" depart="175.00" color="yellow" from="-D" to="B"/>
    <trip id="veh22" type="normalVehicle" depart="185.00" color="yellow" from="-C" to="A"/>
    <trip id="veh23" type="normalVehicle" depart="198.00" color="yellow" from="-D" to="B"/>
    <trip id="veh24" type="eVehicle" depart="208.00" color="yellow" from="-C" to="A"/>
    <trip id="veh25" type="normalVehicle" depart="218.00" color="yellow" from="-D" to="B"/>
    <trip id="veh26" type="normalVehicle" depart="222.00" color="yellow" from="-C" to="A"/>
    <trip id="veh27" type="eVehicle" depart="226.00" color="yellow" from="-A" to="C"/>
    <trip id="veh28" type="eVehicle" depart="227.00" color="yellow" from="-C" to="A"/>
    <trip id="veh29" type="eVehicle" depart="244.00" color="yellow" from="-H" to="F"/>
    <trip id="veh30" type="eVehicle" depart="246.00" color="yellow" from="-E" to="G"/>
    <trip id="veh31" type="eVehicle" depart="265.00" color="yellow" from="-C" to="A"/>
    <trip id="veh32" type="eVehicle" depart="277.00" color="yellow" from="-G" to="E"/>
    <trip id="veh33" type="normalVehicle" depart="282.00" color="yellow" from="-E" to="G"/>
    <trip id="veh34" type="eVehicle" depart="285.00" color="yellow" from="-G" to="E"/>
    <trip id="veh35" type="eVehicle" depart="286.00" color="yellow" from="-H" to="F"/>
    <trip id="veh36" type="normalVehicle" depart="293.00" color="yellow" from="-C" to="A"/>
    <trip id="veh37" type="eVehicle" depart="313.00" color="yellow" from="-F" to="H"/>
    <trip id="veh38" type="normalVehicle" depart="345.00" color="yellow" from="-E" to="G"/>
    <trip id="veh39" type="eVehicle" depart="349.00" color="yellow" from="-G" to="E"/>
    <trip id="veh40" type="normalVehicle" depart="351.00" color="yellow" from="-C" to="A"/>
    <trip id="veh41" type="normalVehicle" depart="365.00" color="yellow" from="-G" to="E"/>
    <trip id="veh42" type="normalVehicle" depart="378.00" color="yellow" from="-A" to="C"/>
    <trip id="veh43" type="normalVehicle" depart="390.00" color="yellow" from="-C" to="A"/>
    <trip id="veh44" type="normalVehicle" depart="410.00" color="yellow" from="-B" to="D"/>
    <trip id="veh45" type="normalVehicle" depart="420.00" color="yellow" from="-B" to="D"/>
    <trip id="veh46" type="eVehicle" depart="422.00" color="yellow" from="-H" to="F"/>
    <trip id="veh47" type="eVehicle" depart="423.00" color="yellow" from="-A" to="C"/>
    <trip id="veh48" type="normalVehicle" depart="462.00" color="yellow" from="-C" to="A"/>
    <trip id="veh49" type="eVehicle" depart="472.00" color="yellow" from="-H" to="F"/>
    <trip id="veh50" type="normalVehicle" depart="475.00" color="yellow" from="-H" to="F"/>
    <trip id="veh51" type="eVehicle" depart="476.00" color="yellow" from="-H" to="F"/>
    <trip id="veh52" type="normalVehicle" depart="482.00" color="yellow" from="-F" to="H"/>
    <trip id="veh53" type="normalVehicle" depart="489.00" color="yellow" from="-E" to="G"/>
    <trip id="veh54" type="eVehicle" depart="496.00" color="yellow" from="-H" to="F"/>
    <trip id="veh55" type="eVehicle" depart="499.00" color="yellow" from="-C" to="A"/>
    <trip id="veh56" type="eVehicle" depart="500.00" color="yellow" from="-A" to="C"/>
    <trip id="veh57" type="normalVehicle" depart="501.00" color="yellow" from="-C" to="A"/>
    <trip id="veh58" type="eVehicle" depart="507.00" color="yellow" from="-A" to="C"/>
    <trip id="veh59" type="eVehicle" depart="510.00" color="yellow" from="-C" to="A"/>
    <trip id="veh60" type="eVehicle" depart="524.00" color="yellow" from="-E" to="G"/>
    <trip id="veh61" type="normalVehicle" depart="531.00" color="yellow" from="-A" to="C"/>
    <trip id="veh62" type="eVehicle" depart="544.00" color="yellow" from="-F" to="H"/>
    <trip id="veh63" type="eVehicle" depart="546.00" color="yellow" from="-C" to="A"/>
    <trip id="veh64" type="eVehicle" depart="550.00" color="yellow" from="-G" to="E"/>
    <trip id="veh65" type="normalVehicle" depart="558.00" color="yellow" from="-B" to="D"/>
    <trip id="veh66" type="normalVehicle" depart="559.00" color="yellow" from="-F" to="H"/>
    <trip id="veh67" type="eVehicle" depart="564.00" color="yellow" from="-H" to="F"/>
    <trip id="veh68" type="eVehicle" depart="565.00" color="yellow" from="-B" to="D"/>
    <trip id="veh69" type="eVehicle" depart="570.00" color="yellow" from="-D" to="B"/>
    <trip id="veh70" type="eVehicle" depart="599.00" color="yellow" from="-G" to="E"/>
    <trip id="veh71" type="normalVehicle" depart="603.00" color="yellow" from="-E" to="G"/>
    <trip id="veh72" type="eVehicle" depart="611.00" color="yellow" from="-D" to="B"/>
    <trip id="veh73" type="eVehicle" depart="612.00" color="yellow" from="-C" to="A"/>
    <trip id="veh74" type="eVehicle" depart="623.00" color="yellow" from="-F" to="H"/>
    <trip id="veh75" type="eVehicle" depart="627.00" color="yellow" from="-E" to="G"/>
    <trip id="veh76" type="eVehicle" depart="677.00" color="yellow" from="-G" to="E"/>
    <trip id="veh77" type="normalVehicle" depart="696.00" color="yellow" from="-E" to="G"/>
    <trip id="veh78" type="normalVehicle" depart="705.00" color="yellow" from="-F" to="H"/>
    <trip id="veh79" type="eVehicle" depart="707.00" color="yellow" from="-H" to="F"/>
    <trip id="veh80" type="normalVehicle" depart="711.00" color="yellow" from="-B" to="D"/>
    <trip id="veh81" type="eVehicle" depart="714.00" color="yellow" from="-E" to="G"/>
    <trip id="veh82" type="eVehicle" depart="722.00" color="yellow" from="-D" to="B"/>
    <trip id="veh83" type="eVehicle" depart="725.00" color="yellow" from="-A" to="C"/>
    <trip id="veh84" type="eVehicle" depart="742.00" color="yellow" from="-B" to="D"/>
    <trip id="veh85" type="eVehicle" depart="755.00" color="yellow" from="-E" to="G"/>
    <trip id="veh86" type="normalVehicle" depart="775.00" color="yellow" from="-A" to="C"/>
    <trip id="veh87" type="normalVehicle" depart="812.00" color="yellow" from="-A" to="C"/>
    <trip id="veh88" type="eVehicle" depart="832.00" color="yellow" from="-H" to="F"/>
    <trip id="veh89" type="normalVehicle" depart="836.00" color="yellow" from="-F" to="H"/>
    <trip id="veh90" type="eVehicle" depart="838.00" color="yellow" from="-H" to="F"/>
    <trip id="veh91" type="normalVehicle" depart="846.00" color="yellow" from="-E" to="G"/>
    <trip id="veh92" type="normalVehicle" depart="855.00" color="yellow" from="-B" to="D"/>
    <trip id="veh93" type="eVehicle" depart="862.00" color="yellow" from="-E" to="G"/>
    <trip id="veh94" type="normalVehicle" depart="880.00" color="yellow" from="-H" to="F"/>
    <trip id="veh95" type="eVehicle" depart="889.00" color="yellow" from="-F" to="H"/>
    <trip id="veh96" type="eVehicle" depart="891.00" color="yellow" from="-A" to="C"/>
    <trip id="veh97" type="eVehicle" depart="895.00" color="yellow" from="-C" to="A"/>
    <trip id="veh98" type="normalVehicle" depart="897.00" color="yellow" from="-H" to="F"/>
    <trip id="veh99" type="normalVehicle" depart="929.00" color="yellow" from="-F" to="H"/>
    <trip id="veh100" type="eVehicle" depart="930.00" color="yellow" from="-B" to="D"/>
    <trip id="veh101" type="eVehicle" depart="936.00" color="yellow" from="-B" to="D"/>
    <trip id="veh102" type="eVehicle" depart="948.00" color="yellow" from="-A" to="C"/>
    <trip id="veh103" type="normalVehicle" depart="954.00" color="yellow" from="-E" to="G"/>
    <trip id="veh104" type="normalVehicle" depart="964.00" color="yellow" from="-D" to="B"/>
    <trip id="veh105" type="normalVehicle" depart="983.00" color="yellow" from="-D" to="B"/>
    <trip id="veh106" type="eVehicle" depart="995.00" color="yellow" from="-C" to="A"/>
    <trip id="veh107" type="normalVehicle" depart="1019.00" color="yellow" from="-F" to="H"/>
    <trip id="veh108" type="eVehicle" depart="1025.00" color="yellow" from="-G" to="E"/>
    <trip id="veh109" type="normalVehicle" depart="1028.00" color="yellow" from="-F" to="H"/>
    <trip id="veh110" type="normalVehicle" depart="1030.00" color="yellow" from="-D" to="B"/>
    <trip id="veh111" type="normalVehicle" depart="1031.00" color="yellow" from="-A" to="C"/>
    <trip id="veh112" type="eVehicle" depart="1034.00" color="yellow" from="-C" to="A"/>
    <trip id="veh113" type="eVehicle" depart="1048.00" color="yellow" from="-E" to="G"/>
    <trip id="veh114" type="normalVehicle" depart="1074.00" color="yellow" from="-H" to="F"/>
    <trip id="veh115" type="eVehicle" depart="1088.00" color="yellow" from="-C" to="A"/>
    <trip id="veh116" type="eVehicle" depart="1090.00" color="yellow" from="-A" to="C"/>
    <trip id="veh117" type="normalVehicle" depart="1125.00" color="yellow" from="-A" to="C"/>
    <trip id="veh118" type="normalVehicle" depart="1131.00" color="yellow" from="-H" to="F"/>
    <trip id="veh119" type="normalVehicle" depart="1141.00" color="yellow" from="-C" to="A"/>
    <trip id="veh120" type="normalVehicle" depart="1152.00" color="yellow" from="-F" to="H"/>
    <trip id="veh121" type="normalVehicle" depart="1159.00" color="yellow" from="-G" to="E"/>
    <trip id="veh122" type="normalVehicle" depart="1166.00" color="yellow" from="-B" to="D"/>
    <trip id="veh123" type="normalVehicle" depart="1168.00" color="yellow" from="-C" to="A"/>
    <trip id="veh124" type="eVehicle" depart="1173.00" color="yellow" from="-E" to="G"/>
    <trip id="veh125" type="eVehicle" depart="1192.00" color="yellow" from="-F" to="H"/>
    <trip id="veh126" type="eVehicle" depart="1207.00" color="yellow" from="-D" to="B"/>
    <trip id="veh127" type="normalVehicle" depart="1218.00" color="yellow" from="-D" to="B"/>
    <trip id="veh128" type="normalVehicle" depart="1248.00" color="yellow" from="-D" to="B"/>
    <trip id="veh129" type="eVehicle" depart="1260.00" color="yellow" from="-H" to="F"/>
    <trip id="veh130" type="eVehicle" depart="1267.00" color="yellow" from="-E" to="G"/>
    <trip id="veh131" type="normalVehicle" depart="1272.00" color="yellow" from="-D" to="B"/>
    <trip id="veh132" type="eVehicle" depart="1287.00" color="yellow" from="-C" to="A"/>
    <trip id="veh133" type="normalVehicle" depart="1315.00" color="yellow" from="-A" to="C"/>
    <trip id="veh134" type="normalVehicle" depart="1318.00" color="yellow" from="-C" to="A"/>
    <trip id="veh135" type="eVehicle" depart="1321.00" color="yellow" from="-B" to="D"/>
    <trip id="veh136" type="eVehicle" depart="1328.00" color="yellow" from="-B" to="D"/>
    <trip id="veh137" type="normalVehicle" depart="1329.00" color="yellow" from="-H" to="F"/>
    <trip id="veh138" type="normalVehicle" depart="1336.00" color="yellow" from="-F" to="H"/>
    <trip id="veh139" type="normalVehicle" depart="1362.00" color="yellow" from="-D" to="B"/>
    <trip id="veh140" type="eVehicle" depart="1369.00" color="yellow" from="-G" to="E"/>
    <trip id="veh141" type="normalVehicle" depart="1375.00" color="yellow" from="-F" to="H"/>
    <trip id="veh142" type="normalVehicle" depart="1382.00" color="yellow" from="-B" to="D"/>
    <trip id="veh143" type="normalVehicle" depart="1401.00" color="yellow" from="-G" to="E"/>
    <trip id="veh144" type="normalVehicle" depart="1409.00" color="yellow" from="-E" to="G"/>
    <trip id="veh145" type="normalVehicle" depart="1439.00" color="yellow" from="-D" to="B"/>
    <trip id="veh146" type="eVehicle" depart="1450.00" color="yellow" from="-A" to="C"/>
    <trip id="veh147" type="normalVehicle" depart="1479.00" color="yellow" from="-E" to="G"/>
    <trip id="veh148" type="eVehicle" depart="1501.00" color="yellow" from="-B" to="D"/>
    <trip id="veh149" type="normalVehicle" depart="1501.00" color="yellow" from="-B" to="D"/>
    <trip id="veh150" type="eVehicle" depart="1503.00" color="yellow" from="-C" to="A"/>
    <trip id="veh151" type="normalVehicle" depart="1503.00" color="yellow" from="-C" to="A"/>
    <trip id="veh152" type="eVehicle" depart="1504.00" color="yellow" from="-D" to="B"/>
    <trip id="veh153" type="normalVehicle" depart="1522.00" color="yellow" from="-D" to="B"/>
    <trip id="veh154" type="eVehicle" depart="1532.00" color="yellow" from="-G" to="E"/>
    <trip id="veh155" type="eVehicle" depart="1538.00" color="yellow" from="-E" to="G"/>
    <trip id="veh156" type="eVehicle" depart="1575.00" color="yellow" from="-B" to="D"/>
    <trip id="veh157" type="normalVehicle" depart="1578.00" color="yellow" from="-B" to="D"/>
    <trip id="veh158" type="eVehicle" depart="1582.00" color="yellow" from="-F" to="H"/>
    <trip id="veh159" type="eVehicle" depart="1584.00" color="yellow" from="-G" to="E"/>
    <trip id="veh160" type="normalVehicle" depart="1588.00" color="yellow" from="-E" to="G"/>
    <trip id="veh161" type="eVehicle" depart="1590.00" color="yellow" from="-G" to="E"/>
    <trip id="veh162" type="normalVehicle" depart="1595.00" color="yellow" from="-E" to="G"/>
    <trip id="veh163" type="eVehicle" depart="1600.00" color="yellow" from="-B" to="D"/>
    <trip id="veh164" type="eVehicle" depart="1603.00" color="yellow" from="-B" to="D"/>
    <trip id="veh165" type="normalVehicle" depart="1608.00" color="yellow" from="-F" to="H"/>
    <trip id="veh166" type="normalVehicle" depart="1614.00" color="yellow" from="-C" to="A"/>
    <trip id="veh167" type="eVehicle" depart="1628.00" color="yellow" from="-F" to="H"/>
    <trip id="veh168" type="eVehicle" depart="1648.00" color="yellow" from="-F" to="H"/>
    <trip id="veh169" type="normalVehicle" depart="1659.00" color="yellow" from="-B" to="D"/>
    <trip id="veh170" type="normalVehicle" depart="1667.00" color="yellow" from="-B" to="D"/>
    <trip id="veh171" type="normalVehicle" depart="1682.00" color="yellow" from="-H" to="F"/>
    <trip id="veh172" type="normalVehicle" depart="1691.00" color="yellow" from="-A" to="C"/>
    <trip id="veh173" type="eVehicle" depart="1699.00" color="yellow" from="-F" to="H"/>
    <trip id="veh174" type="eVehicle" depart="1703.00" color="yellow" from="-E" to="G"/>
    <trip id="veh175" type="normalVehicle" depart="1711.00" color="yellow" from="-C" to="A"/>
    <trip id="veh176" type="eVehicle" depart="1713.00" color="yellow" from="-D" to="B"/>
    <trip id="veh177" type="normalVehicle" depart="1720.00" color="yellow" from="-E" to="G"/>
    <trip id="veh178" type="eVehicle" depart="1729.00" color="yellow" from="-A" to="C"/>
    <trip id="veh179" type="eVehicle" depart="1731.00" color="yellow" from="-C" to="A"/>
    <trip id="veh180" type="eVehicle" depart="1738.00" color="yellow" from="-G" to="E"/>
    <trip id="veh181" type="eVehicle" depart="1740.00" color="yellow" from="-F" to="H"/>
    <trip id="veh182" type="normalVehicle" depart="1746.00" color="yellow" from="-A" to="C"/>
    <trip id="veh183" type="normalVehicle" depart="1747.00" color="yellow" from="-E" to="G"/>
    <trip id="veh184" type="eVehicle" depart="1752.00" color="yellow" from="-B" to="D"/>
    <trip id="veh185" type="normalVehicle" depart="1758.00" color="yellow" from="-E" to="G"/>
    <trip id="veh186" type="normalVehicle" depart="1774.00" color="yellow" from="-F" to="H"/>
    <trip id="veh187" type="eVehicle" depart="1789.00" color="yellow" from="-E" to="G"/>
    <trip id="veh188" type="eVehicle" depart="1802.00" color="yellow" from="-A" to="C"/>
    <trip id="veh189" type="normalVehicle" depart="1803.00" color="yellow" from="-A" to="C"/>
    <trip id="veh190" type="normalVehicle" depart="1827.00" color="yellow" from="-G" to="E"/>
    <trip id="veh191" type="eVehicle" depart="1831.00" color="yellow" from="-G" to="E"/>
    <trip id="veh192" type="eVehicle" depart="1842.00" color="yellow" from="-G" to="E"/>
    <trip id="veh193" type="eVehicle" depart="1847.00" color="yellow" from="-H" to="F"/>
    <trip id="veh194" type="normalVehicle" depart="1861.00" color="yellow" from="-D" to="B"/>
    <trip id="veh195" type="eVehicle" depart="1870.00" color="yellow" from="-E" to="G"/>
    <trip id="veh196" type="eVehicle" depart="1880.00" color="yellow" from="-B" to="D"/>
    <trip id="veh197" type="normalVehicle" depart="1890.00" color="yellow" from="-F" to="H"/>
    <trip id="veh198" type="eVehicle" depart="1906.00" color="yellow" from="-E" to="G"/>
    <trip id="veh199" type="eVehicle" depart="1907.00" color="yellow" from="-G" to="E"/>
    <trip id="veh200" type="eVehicle" depart="1954.00" color="yellow" from="-D" to="B"/>
    <trip id="veh201" type="normalVehicle" depart="1962.00" color="yellow" from="-G" to="E"/>
    <trip id="veh202" type="normalVehicle" depart="1966.00" color="yellow" from="-F" to="H"/>
    <trip id="veh203" type="eVehicle" depart="1972.00" color="yellow" from="-G" to="E"/>
    <trip id="veh204" type="eVehicle" depart="1975.00" color="yellow" from="-F" to="H"/>
    <trip id="veh205" type="normalVehicle" depart="2019.00" color="yellow" from="-E" to="G"/>
    <trip id="veh206" type="normalVehicle" depart="2030.00" color="yellow" from="-F" to="H"/>
    <trip id="veh207" type="eVehicle" depart="2039.00" color="yellow" from="-D" to="B"/>
    <trip id="veh208" type="eVehicle" depart="2069.00" color="yellow" from="-E" to="G"/>
    <trip id="veh209" type="normalVehicle" depart="2075.00" color="yellow" from="-H" to="F"/>
    <trip id="veh210" type="normalVehicle" depart="2077.00" color="yellow" from="-E" to="G"/>
    <trip id="veh211" type="eVehicle" depart="2102.00" color="yellow" from="-D" to="B"/>
    <trip id="veh212" type="eVehicle" depart="2142.00" color="yellow" from="-H" to="F"/>
    <trip id="veh213" type="normalVehicle" depart="2147.00" color="yellow" from="-E" to="G"/>
    <trip id="veh214" type="normalVehicle" depart="2154.00" color="yellow" from="-C" to="A"/>
    <trip id="veh215" type="normalVehicle" depart="2158.00" color="yellow" from="-E" to="G"/>
    <trip id="veh216" type="eVehicle" depart="2198.00" color="yellow" from="-F" to="H"/>
    <trip id="veh217" type="eVehicle" depart="2199.00" color="yellow" from="-A" to="C"/>
    <trip id="veh218" type="normalVehicle" depart="2216.00" color="yellow" from="-E" to="G"/>
    <trip id="veh219" type="eVehicle" depart="2220.00" color="yellow" from="-B" to="D"/>
    <trip id="veh220" type="eVehicle" depart="2221.00" color="yellow" from="-A" to="C"/>
    <trip id="veh221" type="eVehicle" depart="2235.00" color="yellow" from="-H" to="F"/>
    <trip id="veh222" type="eVehicle" depart="2239.00" color="yellow" from="-G" to="E"/>
    <trip id="veh223" type="normalVehicle" depart="2266.00" color="yellow" from="-H" to="F"/>
    <trip id="veh224" type="eVehicle" depart="2279.00" color="yellow" from="-H" to="F"/>
    <trip id="veh225" type="eVehicle" depart="2285.00" color="yellow" from="-D" to="B"/>
    <trip id="veh226" type="eVehicle" depart="2289.00" color="yellow" from="-C" to="A"/>
    <trip id="veh227" type="eVehicle" depart="2301.00" color="yellow" from="-A" to="C"/>
    <trip id="veh228" type="eVehicle" depart="2313.00" color="yellow" from="-B" to="D"/>
    <trip id="veh229" type="eVehicle" depart="2318.00" color="yellow" from="-C" to="A"/>
    <trip id="veh230" type="normalVehicle" depart="2325.00" color="yellow" from="-G" to="E"/>
    <trip id="veh231" type="normalVehicle" depart="2336.00" color="yellow" from="-G" to="E"/>
    <trip id="veh232" type="eVehicle" depart="2337.00" color="yellow" from="-H" to="F"/>
    <trip id="veh233" type="eVehicle" depart="2339.00" color="yellow" from="-G" to="E"/>
    <trip id="veh234" type="normalVehicle" depart="2347.00" color="yellow" from="-D" to="B"/>
    <trip id="veh235" type="eVehicle" depart="2370.00" color="yellow" from="-A" to="C"/>
    <trip id="veh236" type="eVehicle" depart="2376.00" color="yellow" from="-A" to="C"/>
    <trip id="veh237" type="normalVehicle" depart="2378.00" color="yellow" from="-F" to="H"/>
    <trip id="veh238" type="eVehicle" depart="2395.00" color="yellow" from="-D" to="B"/>
    <trip id="veh239" type="eVehicle" depart="2398.00" color="yellow" from="-B" to="D"/>
    <trip id="veh240" type="normalVehicle" depart="2403.00" color="yellow" from="-D" to="B"/>
    <trip id="veh241" type="normalVehicle" depart="2408.00" color="yellow" from="-F" to="H"/>
    <trip id="veh242" type="normalVehicle" depart="2452.00" color="yellow" from="-D" to="B"/>
    <trip id="veh243" type="normalVehicle" depart="2460.00" color="yellow" from="-F" to="H"/>
    <trip id="veh244" type="normalVehicle" depart="2462.00" color="yellow" from="-H" to="F"/>
    <trip id="veh245" type="normalVehicle" depart="2469.00" color="yellow" from="-B" to="D"/>
    <trip id="veh246" type="normalVehicle" depart="2470.00" color="yellow" from="-A" to="C"/>
    <trip id="veh247" type="eVehicle" depart="2476.00" color="yellow" from="-F" to="H"/>
    <trip id="veh248" type="eVehicle" depart="2477.00" color="yellow" from="-H" to="F"/>
    <trip id="veh249" type="eVehicle" depart="2479.00" color="yellow" from="-D" to="B"/>
    <trip id="veh250" type="normalVehicle" depart="2501.00" color="yellow" from="-F" to="H"/>
    <trip id="veh251" type="normalVehicle" depart="2520.00" color="yellow" from="-B" to="D"/>
    <trip id="veh252" type="eVehicle" depart="2542.00" color="yellow" from="-E" to="G"/>
    <trip id="veh253" type="normalVehicle" depart="2547.00" color="yellow" from="-E" to="G"/>
    <trip id="veh254" type="normalVehicle" depart="2554.00" color="yellow" from="-H" to="F"/>
    <trip id="veh255" type="normalVehicle" depart="2560.00" color="yellow" from="-B" to="D"/>
    <trip id="veh256" type="eVehicle" depart="2565.00" color="yellow" from="-A" to="C"/>
    <trip id="veh257" type="eVehicle" depart="2587.00" color="yellow" from="-D" to="B"/>
    <trip id="veh258" type="eVehicle" depart="2591.00" color="yellow" from="-A" to="C"/>
    <trip id="veh259" type="eVehicle" depart="2593.00" color="yellow" from="-F" to="H"/>
    <trip id="veh260" type="normalVehicle" depart="2607.00" color="yellow" from="-C" to="A"/>
    <trip id="veh261" type="eVehicle" depart="2627.00" color="yellow" from="-B" to="D"/>
    <trip id="veh262" type="normalVehicle" depart="2641.00" color="yellow" from="-G" to="E"/>
    <trip id="veh263" type="normalVehicle" depart="2647.00" color="yellow" from="-G" to="E"/>
    <trip id="veh264" type="normalVehicle" depart="2656.00" color="yellow" from="-D" to="B"/>
    <trip id="veh265" type="eVehicle" depart="2675.00" color="yellow" from="-A" to="C"/>
    <trip id="veh266" type="eVehicle" depart="2678.00" color="yellow" from="-A" to="C"/>
    <trip id="veh267" type="eVehicle" depart="2684.00" color="yellow" from="-E" to="G"/>
    <trip id="veh268" type="normalVehicle" depart="2688.00" color="yellow" from="-G" to="E"/>
    <trip id="veh269" type="eVehicle" depart="2700.00" color="yellow" from="-A" to="C"/>
    <trip id="veh270" type="normalVehicle" depart="2716.00" color="yellow" from="-D" to="B"/>
    <trip id="veh271" type="normalVehicle" depart="2723.00" color="yellow" from="-E" to="G"/>
    <trip id="veh272" type="eVehicle" depart="2726.00" color="yellow" from="-F" to="H"/>
    <trip id="veh273" type="eVehicle" depart="2736.00" color="yellow" from="-D" to="B"/>
    <trip id="veh274" type="eVehicle" depart="2738.00" color="yellow" from="-H" to="F"/>
    <trip id="veh275" type="normalVehicle" depart="2738.00" color="yellow" from="-H" to="F"/>
    <trip id="veh276" type="normalVehicle" depart="2776.00" color="yellow" from="-C" to="A"/>
    <trip id="veh277" type="eVehicle" depart="2778.00" color="yellow" from="-D" to="B"/>
    <trip id="veh278" type="eVehicle" depart="2782.00" color="yellow" from="-B" to="D"/>
    <trip id="veh279" type="eVehicle" depart="2788.00" color="yellow" from="-E" to="G"/>
    <trip id="veh280" type="normalVehicle" depart="2793.00" color="yellow" from="-H" to="F"/>
    <trip id="veh281" type="eVehicle" depart="2794.00" color="yellow" from="-F" to="H"/>
    <trip id="veh282" type="normalVehicle" depart="2803.00" color="yellow" from="-G" to="E"/>
    <trip id="veh283" type="normalVehicle" depart="2805.00" color="yellow" from="-B" to="D"/>
    <trip id="veh284" type="normalVehicle" depart="2820.00" color="yellow" from="-H" to="F"/>
    <trip id="veh285" type="eVehicle" depart="2821.00" color="yellow" from="-E" to="G"/>
    <trip id="veh286" type="eVehicle" depart="2861.00" color="yellow" from="-C" to="A"/>
    <trip id="veh287" type="normalVehicle" depart="2864.00" color="yellow" from="-H" to="F"/>
    <trip id="veh288" type="eVehicle" depart="2867.00" color="yellow" from="-B" to="D"/>
    <trip id="veh289" type="eVehicle" depart="2892.00" color="yellow" from="-A" to="C"/>
    <trip id="veh290" type="normalVehicle" depart="2907.00" color="yellow" from="-B" to="D"/>
    <trip id="veh291" type="eVehicle" depart="2933.00" color="yellow" from="-H" to="F"/>
    <trip id="veh292" type="eVehicle" depart="2934.00" color="yellow" from="-G" to="E"/>
    <trip id="veh293" type="normalVehicle" depart="2955.00" color="yellow" from="-F" to="H"/>
    <trip id="veh294" type="eVehicle" depart="2970.00" color="yellow" from="-D" to="B"/>
    <trip id="veh295" type="eVehicle" depart="2972.00" color="yellow" from="-B" to="D"/>
    <trip id="veh296" type="normalVehicle" depart="2986.00" color="yellow" from="-G" to="E"/>
    <trip id="veh297" type="normalVehicle" depart="2991.00" color="yellow" from="-B" to="D"/>
    <trip id="veh298" type="eVehicle" depart="2997.00" color="yellow" from="-E" to="G"/>
    <trip id="veh299" type="normalVehicle" depart="3009.00" color="yellow" from="-E" to="G"/>
    <trip id="veh300" type="eVehicle" depart="3029.00" color="yellow" from="-A" to="C"/>
    <trip id="veh301" type="normalVehicle" depart="3038.00" color="yellow" from="-G" to="E"/>
    <trip id="veh302" type="eVehicle" depart="3042.00" color="yellow" from="-D" to="B"/>
    <trip id="veh303" type="normalVehicle" depart="3042.00" color="yellow" from="-D" to="B"/>
    <trip id="veh304" type="normalVehicle" depart="3044.00" color="yellow" from="-C" to="A"/>
    <trip id="veh305" type="normalVehicle" depart="3047.00" color="yellow" from="-A" to="C"/>
    <trip id="veh306" type="eVehicle" depart="3064.00" color="yellow" from="-G" to="E"/>
    <trip id="veh307" type="eVehicle" depart="3066.00" color="yellow" from="-E" to="G"/>
    <trip id="veh308" type="eVehicle" depart="3095.00" color="yellow" from="-F" to="H"/>
    <trip id="veh309" type="eVehicle" depart="3096.00" color="yellow" from="-H" to="F"/>
    <trip id="veh310" type="eVehicle" depart="3106.00" color="yellow" from="-E" to="G"/>