 <routes>
        <!-- B label -->
        <vType id="truck" emissionClass="HBEFA3/HDV_D_EU4" vClass="truck" guiShape="passenger" color="0,0,128"/>
        
        <!-- Type noauthorized -->
        <vType id="noauthority" vClass="custom1" guiShape="passenger" color="red" />

        <trip depart="108" from="-G" to="E" color="yellow" type="truck" id="veh26"/>
        <trip depart="111" from="-E" to="G" color="yellow" type="truck" id="veh27"/>
        <trip depart="152" from="-D" to="B" color="yellow" type="truck" id="veh34"/>
        <trip depart="156" from="-F" to="H" color="yellow" type="truck" id="veh37"/>
        <trip depart="171" from="-D" to="B" color="yellow" type="truck" id="veh41"/>
        <trip depart="181" from="-E" to="G" color="yellow" type="truck" id="veh43"/>
        <trip depart="192" from="-F" to="H" color="yellow" type="truck" id="veh47"/>
        <trip depart="236" from="-B" to="D" color="yellow" type="truck" id="veh60"/>
        <trip depart="281" from="-F" to="H" color="yellow" type="truck" id="veh73"/>
        <trip depart="333" from="-H" to="F" color="yellow" type="truck" id="veh91"/>
        <trip depart="337" from="-H" to="F" color="yellow" type="truck" id="veh92"/>
        <trip depart="343" from="-G" to="E" color="yellow" type="truck" id="veh95"/>
        <trip depart="344" from="-B" to="D" color="yellow" type="truck" id="veh96"/>
        <trip depart="378" from="-E" to="G" color="yellow" type="truck" id="veh106"/>
        <trip depart="434" from="-B" to="D" color="yellow" type="truck" id="veh121"/>
        <trip depart="451" from="-B" to="D" color="yellow" type="truck" id="veh126"/>
        <trip depart="516" from="-C" to="A" color="yellow" type="truck" id="veh139"/>
        <trip depart="716" from="-F" to="H" color="yellow" type="truck" id="veh196"/>
        <trip depart="746" from="-C" to="A" color="yellow" type="truck" id="veh206"/>
        <trip depart="816" from="-B" to="D" color="yellow" type="truck" id="veh222"/>
        <trip depart="842" from="-F" to="H" color="yellow" type="truck" id="veh231"/>
        <trip depart="887" from="-G" to="E" color="yellow" type="truck" id="veh241"/>
        <trip depart="975" from="-A" to="C" color="yellow" type="truck" id="veh267"/>
        <trip depart="979" from="-C" to="A" color="yellow" type="truck" id="veh271"/>
        <trip depart="1036" from="-G" to="E" color="yellow" type="truck" id="veh288"/>
        <trip depart="1067" from="-E" to="G" color="yellow" type="truck" id="veh295"/>
        <trip depart="1117" from="-D" to="B" color="yellow" type="truck" id="veh308"/>
        <trip depart="1132" from="-D" to="B" color="yellow" type="truck" id="veh313"/>
        <trip depart="1189" from="-D" to="B" color="yellow" type="truck" id="veh326"/>
        <trip depart="1192" from="-C" to="A" color="yellow" type="truck" id="veh327"/>
        <trip depart="1207" from="-F" to="H" color="yellow" type="truck" id="veh337"/>
        <trip depart="1246" from="-B" to="D" color="yellow" type="truck" id="veh351"/>
        <trip depart="1286" from="-F" to="H" color="yellow" type="truck" id="veh366"/>
        <trip depart="1300" from="-H" to="F" color="yellow" type="truck" id="veh370"/>
        <trip depart="1306" from="-E" to="G" color="yellow" type="truck" id="veh375"/>
        <trip depart="1322" from="-C" to="A" color="yellow" type="truck" id="veh377"/>
        <trip depart="1342" from="-E" to="G" color="yellow" type="truck" id="veh382"/>
        <trip depart="1409" from="-G" to="E" color="yellow" type="truck" id="veh399"/>
        <trip depart="1421" from="-D" to="B" color="yellow" type="truck" id="veh401"/>
        <trip depart="1423" from="-H" to="F" color="yellow" type="truck" id="veh402"/>
        <trip depart="1425" from="-E" to="G" color="yellow" type="truck" id="veh404"/>
        <trip depart="1434" from="-C" to="A" color="yellow" type="truck" id="veh408"/>
        <trip depart="1438" from="-D" to="B" color="yellow" type="truck" id="veh409"/>
        <trip depart="1443" from="-B" to="D" color="yellow" type="truck" id="veh410"/>
        <trip depart="1451" from="-E" to="G" color="yellow" type="truck" id="veh412"/>
        <trip depart="1488" from="-H" to="F" color="yellow" type="truck" id="veh416"/>
        <trip depart="1501" from="-B" to="D" color="yellow" type="truck" id="veh418"/>
        <trip depart="1533" from="-H" to="F" color="yellow" type="truck" id="veh427"/>
        <trip depart="1540" from="-F" to="H" color="yellow" type="truck" id="veh430"/>
        <trip depart="1564" from="-A" to="C" color="yellow" type="truck" id="veh435"/>
        <trip depart="1609" from="-F" to="H" color="yellow" type="truck" id="veh445"/>
        <trip depart="1642" from="-A" to="C" color="yellow" type="truck" id="veh456"/>
        <trip depart="1652" from="-H" to="F" color="yellow" type="truck" id="veh458"/>
        <trip depart="1657" from="-E" to="G" color="yellow" type="truck" id="veh463"/>
        <trip depart="1769" from="-C" to="A" color="yellow" type="truck" id="veh491"/>
        <trip depart="1773" from="-C" to="A" color="yellow" type="truck" id="veh492"/>
        <trip depart="1816" from="-A" to="C" color="yellow" type="truck" id="veh502"/>
        <trip depart="2026" from="-E" to="G" color="yellow" type="truck" id="veh555"/>
        <trip depart="2239" from="-A" to="C" color="yellow" type="truck" id="veh607"/>
        <trip depart="2245" from="-E" to="G" color="yellow" type="truck" id="veh612"/>
        <trip depart="2265" from="-E" to="G" color="yellow" type="truck" id="veh620"/>
        <trip depart="2367" from="-A" to="C" color="yellow" type="truck" id="veh644"/>
        <trip depart="2395" from="-A" to="C" color="yellow" type="truck" id="veh647"/>
        <trip depart="2511" from="-F" to="H" color="yellow" type="truck" id="veh676"/>
        <trip depart="2613" from="-D" to="B" color="yellow" type="truck" id="veh703"/>
        <trip depart="2681" from="-H" to="F" color="yellow" type="truck" id="veh726"/>
        <trip depart="2770" from="-C" to="A" color="yellow" type="truck" id="veh753"/>
        <trip depart="2840" from="-C" to="A" color="yellow" type="truck" id="veh778"/>
        <trip depart="2873" from="-A" to="C" color="yellow" type="truck" id="veh786"/>
        <trip depart="2876" from="-F" to="H" color="yellow" type="truck" id="veh787"/>
        <trip depart="2913" from="-E" to="G" color="yellow" type="truck" id="veh796"/>
        <trip depart="2935" from="-D" to="B" color="yellow" type="truck" id="veh802"/>
        <trip depart="2961" from="-G" to="E" color="yellow" type="truck" id="veh813"/>
        <trip depart="2964" from="-G" to="E" color="yellow" type="truck" id="veh814"/>
        <trip depart="3010" from="-G" to="E" color="yellow" type="truck" id="veh832"/>
        <trip depart="3049" from="-A" to="C" color="yellow" type="truck" id="veh848"/>
        <trip depart="3081" from="-D" to="B" color="yellow" type="truck" id="veh856"/>
        <trip depart="3189" from="-G" to="E" color="yellow" type="truck" id="veh887"/>
        <trip depart="3297" from="-G" to="E" color="yellow" type="truck" id="veh933"/>
        <trip depart="3340" from="-D" to="B" color="yellow" type="truck" id="veh944"/>
        <trip depart="3354" from="-D" to="B" color="yellow" type="truck" id="veh947"/>
        <trip depart="3458" from="-E" to="G" color="yellow" type="truck" id="veh982"/>
        <trip depart="3516" from="-B" to="D" color="yellow" type="truck" id="veh1002"/>
        <trip depart="3558" from="-A" to="C" color="yellow" type="truck" id="veh1013"/>
        <trip depart="3606" from="-D" to="B" color="yellow" type="truck" id="veh1032"/>
        <trip depart="3608" from="-B" to="D" color="yellow" type="truck" id="veh1033"/>
        <trip depart="3627" from="-F" to="H" color="yellow" type="truck" id="veh1044"/>
        <trip depart="3658" from="-E" to="G" color="yellow" type="truck" id="veh1057"/>
        <trip depart="3708" from="-G" to="E" color="yellow" type="truck" id="veh1085"/>
        <trip depart="3711" from="-E" to="G" color="yellow" type="truck" id="veh1086"/>
        <trip depart="3752" from="-D" to="B" color="yellow" type="truck" id="veh1104"/>
        <trip depart="3756" from="-F" to="H" color="yellow" type="truck" id="veh1109"/>
        <trip depart="3771" from="-D" to="B" color="yellow" type="truck" id="veh1118"/>
        <trip depart="3772" from="-B" to="D" color="yellow" type="truck" id="veh1119"/>
        <trip depart="3775" from="-G" to="E" color="yellow" type="truck" id="veh1122"/>
        <trip depart="3781" from="-E" to="G" color="yellow" type="truck" id="veh1126"/>
        <trip depart="3782" from="-B" to="D" color="yellow" type="truck" id="veh1128"/>
        <trip depart="3792" from="-F" to="H" color="yellow" type="truck" id="veh1133"/>
        <trip depart="3799" from="-E" to="G" color="yellow" type="truck" id="veh1136"/>
        <trip depart="3836" from="-B" to="D" color="yellow" type="truck" id="veh1166"/>
        <trip depart="3881" from="-F" to="H" color="yellow" type="truck" id="veh1188"/>
        <trip depart="3933" from="-H" to="F" color="yellow" type="truck" id="veh1224"/>
        <trip depart="3937" from="-H" to="F" color="yellow" type="truck" id="veh1227"/>
        <trip depart="3943" from="-G" to="E" color="yellow" type="truck" id="veh1230"/>
        <trip depart="3944" from="-B" to="D" color="yellow" type="truck" id="veh1231"/>
        <trip depart="3951" from="-D" to="B" color="yellow" type="truck" id="veh1237"/>
        <trip depart="3978" from="-E" to="G" color="yellow" type="truck" id="veh1254"/>
        <trip depart="3996" from="-H" to="F" color="yellow" type="truck" id="veh1264"/>
        <trip depart="4031" from="-D" to="B" color="yellow" type="truck" id="veh1285"/>
        <trip depart="4034" from="-B" to="D" color="yellow" type="truck" id="veh1287"/>
        <trip depart="4051" from="-B" to="D" color="yellow" type="truck" id="veh1297"/>
        <trip depart="4080" from="-B" to="D" color="yellow" type="truck" id="veh1314"/>
        <trip depart="4096" from="-A" to="C" color="yellow" type="truck" id="veh1322"/>
        <trip depart="4108" from="-G" to="E" color="yellow" type="truck" id="veh1331"/>
        <trip depart="4111" from="-D" to="B" color="yellow" type="truck" id="veh1332"/>
        <trip depart="4116" from="-C" to="A" color="yellow" type="truck" id="veh1334"/>
        <trip depart="4151" from="-A" to="C" color="yellow" type="truck" id="veh1356"/>
        <trip depart="4175" from="-E" to="G" color="yellow" type="truck" id="veh1370"/>
        <trip depart="4195" from="-H" to="F" color="yellow" type="truck" id="veh1380"/>
        <trip depart="4234" from="-H" to="F" color="yellow" type="truck" id="veh1404"/>
        <trip depart="4237" from="-F" to="H" color="yellow" type="truck" id="veh1406"/>
        <trip depart="4258" from="-G" to="E" color="yellow" type="truck" id="veh1423"/>
        <trip depart="4292" from="-A" to="C" color="yellow" type="truck" id="veh1442"/>
        <trip depart="4316" from="-F" to="H" color="yellow" type="truck" id="veh1459"/>
        <trip depart="4346" from="-C" to="A" color="yellow" type="truck" id="veh1478"/>
        <trip depart="4407" from="-E" to="G" color="yellow" type="truck" id="veh1509"/>
        <trip depart="4413" from="-G" to="E" color="yellow" type="truck" id="veh1516"/>
        <trip depart="4416" from="-B" to="D" color="yellow" type="truck" id="veh1518"/>
        <trip depart="4442" from="-F" to="H" color="yellow" type="truck" id="veh1532"/>
        <trip depart="4487" from="-G" to="E" color="yellow" type="truck" id="veh1554"/>
        <trip depart="4575" from="-A" to="C" color="yellow" type="truck" id="veh1608"/>
        <trip depart="4579" from="-C" to="A" color="yellow" type="truck" id="veh1613"/>
        <trip depart="4596" from="-B" to="D" color="yellow" type="truck" id="veh1619"/>
        <trip depart="4626" from="-H" to="F" color="yellow" type="truck" id="veh1640"/>
        <trip depart="4632" from="-F" to="H" color="yellow" type="truck" id="veh1644"/>
        <trip depart="4636" from="-G" to="E" color="yellow" type="truck" id="veh1647"/>
        <trip depart="4667" from="-E" to="G" color="yellow" type="truck" id="veh1667"/>
        <trip depart="4673" from="-D" to="B" color="yellow" type="truck" id="veh1672"/>
        <trip depart="4717" from="-D" to="B" color="yellow" type="truck" id="veh1694"/>
        <trip depart="4732" from="-D" to="B" color="yellow" type="truck" id="veh1703"/>
        <trip depart="4744" from="-F" to="H" color="yellow" type="truck" id="veh1711"/>
        <trip depart="4757" from="-A" to="C" color="yellow" type="truck" id="veh1719"/>
        <trip depart="4789" from="-D" to="B" color="yellow" type="truck" id="veh1738"/>
        <trip depart="4792" from="-C" to="A" color="yellow" type="truck" id="veh1740"/>
        <trip depart="4807" from="-F" to="H" color="yellow" type="truck" id="veh1754"/>
        <trip depart="4828" from="-C" to="A" color="yellow" type="truck" id="veh1763"/>
        <trip depart="4846" from="-B" to="D" color="yellow" type="truck" id="veh1776"/>
        <trip depart="4875" from="-A" to="C" color="yellow" type="truck" id="veh1798"/>
        <trip depart="4886" from="-F" to="H" color="yellow" type="truck" id="veh1805"/>
        <trip depart="4900" from="-H" to="F" color="yellow" type="truck" id="veh1813"/>
        <trip depart="4906" from="-E" to="G" color="yellow" type="truck" id="veh1820"/>
        <trip depart="4917" from="-H" to="F" color="yellow" type="truck" id="veh1824"/>
        <trip depart="4922" from="-C" to="A" color="yellow" type="truck" id="veh1827"/>
        <trip depart="4942" from="-E" to="G" color="yellow" type="truck" id="veh1835"/>
        <trip depart="4996" from="-B" to="D" color="yellow" type="truck" id="veh1866"/>
        <trip depart="5009" from="-G" to="E" color="yellow" type="truck" id="veh1872"/>
        <trip depart="5021" from="-D" to="B" color="yellow" type="truck" id="veh1877"/>
        <trip depart="5023" from="-H" to="F" color="yellow" type="truck" id="veh1879"/>
        <trip depart="5025" from="-E" to="G" color="yellow" type="truck" id="veh1882"/>
        <trip depart="5034" from="-C" to="A" color="yellow" type="truck" id="veh1889"/>
        <trip depart="5038" from="-D" to="B" color="yellow" type="truck" id="veh1891"/>
        <trip depart="5043" from="-B" to="D" color="yellow" type="truck" id="veh1893"/>
        <trip depart="5051" from="-E" to="G" color="yellow" type="truck" id="veh1898"/>
        <trip depart="5088" from="-H" to="F" color="yellow" type="truck" id="veh1906"/>
        <trip depart="5101" from="-B" to="D" color="yellow" type="truck" id="veh1911"/>
        <trip depart="5133" from="-H" to="F" color="yellow" type="truck" id="veh1925"/>
        <trip depart="5140" from="-F" to="H" color="yellow" type="truck" id="veh1931"/>
        <trip depart="5152" from="-C" to="A" color="yellow" type="truck" id="veh1939"/>
        <trip depart="5164" from="-A" to="C" color="yellow" type="truck" id="veh1947"/>
        <trip depart="5180" from="-C" to="A" color="yellow" type="truck" id="veh1954"/>
        <trip depart="5192" from="-C" to="A" color="yellow" type="truck" id="veh1962"/>
        <trip depart="5209" from="-F" to="H" color="yellow" type="truck" id="veh1976"/>
        <trip depart="5219" from="-H" to="F" color="yellow" type="truck" id="veh1981"/>
        <trip depart="5235" from="-G" to="E" color="yellow" type="truck" id="veh1992"/>
        <trip depart="5242" from="-A" to="C" color="yellow" type="truck" id="veh1997"/>
        <trip depart="5252" from="-H" to="F" color="yellow" type="truck" id="veh2000"/>
        <trip depart="5254" from="-C" to="A" color="yellow" type="truck" id="veh2004"/>
        <trip depart="5257" from="-E" to="G" color="yellow" type="truck" id="veh2008"/>
        <trip depart="5269" from="-C" to="A" color="yellow" type="truck" id="veh2015"/>
        <trip depart="5298" from="-A" to="C" color="yellow" type="truck" id="veh2033"/>
        <trip depart="5369" from="-C" to="A" color="yellow" type="truck" id="veh2064"/>
        <trip depart="5373" from="-C" to="A" color="yellow" type="truck" id="veh2068"/>
        <trip depart="5508" from="-G" to="E" color="yellow" type="truck" id="veh2107"/>
        <trip depart="5511" from="-E" to="G" color="yellow" type="truck" id="veh2108"/>
        <trip depart="5552" from="-D" to="B" color="yellow" type="truck" id="veh2115"/>
        <trip depart="5556" from="-F" to="H" color="yellow" type="truck" id="veh2118"/>
        <trip depart="5571" from="-D" to="B" color="yellow" type="truck" id="veh2122"/>
        <trip depart="5581" from="-E" to="G" color="yellow" type="truck" id="veh2124"/>
        <trip depart="5592" from="-F" to="H" color="yellow" type="truck" id="veh2128"/>
        <trip depart="5636" from="-B" to="D" color="yellow" type="truck" id="veh2141"/>
        <trip depart="5681" from="-F" to="H" color="yellow" type="truck" id="veh2154"/>
        <trip depart="5733" from="-H" to="F" color="yellow" type="truck" id="veh2172"/>
        <trip depart="5737" from="-H" to="F" color="yellow" type="truck" id="veh2173"/>
        <trip depart="5743" from="-G" to="E" color="yellow" type="truck" id="veh2176"/>
        <trip depart="5744" from="-B" to="D" color="yellow" type="truck" id="veh2177"/>
        <trip depart="5778" from="-E" to="G" color="yellow" type="truck" id="veh2187"/>
        <trip depart="5834" from="-B" to="D" color="yellow" type="truck" id="veh2202"/>
        <trip depart="5851" from="-B" to="D" color="yellow" type="truck" id="veh2207"/>
        <trip depart="5916" from="-C" to="A" color="yellow" type="truck" id="veh2220"/>
        <trip depart="6116" from="-F" to="H" color="yellow" type="truck" id="veh2277"/>
        <trip depart="6146" from="-C" to="A" color="yellow" type="truck" id="veh2287"/>
        <trip depart="6216" from="-B" to="D" color="yellow" type="truck" id="veh2303"/>
        <trip depart="6242" from="-F" to="H" color="yellow" type="truck" id="veh2312"/>
        <trip depart="6287" from="-G" to="E" color="yellow" type="truck" id="veh2322"/>
        <trip depart="6375" from="-A" to="C" color="yellow" type="truck" id="veh2348"/>
        <trip depart="6379" from="-C" to="A" color="yellow" type="truck" id="veh2352"/>
        <trip depart="6436" from="-G" to="E" color="yellow" type="truck" id="veh2369"/>
        <trip depart="6467" from="-E" to="G" color="yellow" type="truck" id="veh2376"/>
        <trip depart="6517" from="-D" to="B" color="yellow" type="truck" id="veh2389"/>
        <trip depart="6532" from="-D" to="B" color="yellow" type="truck" id="veh2394"/>
        <trip depart="6589" from="-D" to="B" color="yellow" type="truck" id="veh2407"/>
        <trip depart="6592" from="-C" to="A" color="yellow" type="truck" id="veh2408"/>
        <trip depart="6607" from="-F" to="H" color="yellow" type="truck" id="veh2418"/>
        <trip depart="6646" from="-B" to="D" color="yellow" type="truck" id="veh2432"/>
        <trip depart="6686" from="-F" to="H" color="yellow" type="truck" id="veh2447"/>
        <trip depart="6700" from="-H" to="F" color="yellow" type="truck" id="veh2451"/>
        <trip depart="6706" from="-E" to="G" color="yellow" type="truck" id="veh2456"/>
        <trip depart="6722" from="-C" to="A" color="yellow" type="truck" id="veh2458"/>
        <trip depart="6742" from="-E" to="G" color="yellow" type="truck" id="veh2463"/>
        <trip depart="6809" from="-G" to="E" color="yellow" type="truck" id="veh2480"/>
        <trip depart="6821" from="-D" to="B" color="yellow" type="truck" id="veh2482"/>
        <trip depart="6823" from="-H" to="F" color="yellow" type="truck" id="veh2483"/>
        <trip depart="6825" from="-E" to="G" color="yellow" type="truck" id="veh2485"/>
        <trip depart="6834" from="-C" to="A" color="yellow" type="truck" id="veh2489"/>
        <trip depart="6838" from="-D" to="B" color="yellow" type="truck" id="veh2490"/>
        <trip depart="6843" from="-B" to="D" color="yellow" type="truck" id="veh2491"/>
        <trip depart="6851" from="-E" to="G" color="yellow" type="truck" id="veh2493"/>
        <trip depart="6888" from="-H" to="F" color="yellow" type="truck" id="veh2497"/>
        <trip depart="6901" from="-B" to="D" color="yellow" type="truck" id="veh2499"/>
        <trip depart="6933" from="-H" to="F" color="yellow" type="truck" id="veh2508"/>
        <trip depart="6940" from="-F" to="H" color="yellow" type="truck" id="veh2511"/>
        <trip depart="6964" from="-A" to="C" color="yellow" type="truck" id="veh2516"/>
        <trip depart="7009" from="-F" to="H" color="yellow" type="truck" id="veh2526"/>
        <trip depart="7042" from="-A" to="C" color="yellow" type="truck" id="veh2537"/>
        <trip depart="7052" from="-H" to="F" color="yellow" type="truck" id="veh2539"/>
        <trip depart="7057" from="-E" to="G" color="yellow" type="truck" id="veh2544"/>
        <trip depart="7169" from="-C" to="A" color="yellow" type="truck" id="veh2572"/>
        <trip depart="7173" from="-C" to="A" color="yellow" type="truck" id="veh2573"/>
        <trip depart="7216" from="-A" to="C" color="yellow" type="truck" id="veh2583"/>
        <trip depart="7426" from="-E" to="G" color="yellow" type="truck" id="veh2636"/>
        <trip depart="7639" from="-A" to="C" color="yellow" type="truck" id="veh2688"/>
        <trip depart="7645" from="-E" to="G" color="yellow" type="truck" id="veh2693"/>
        <trip depart="7665" from="-E" to="G" color="yellow" type="truck" id="veh2701"/>
        <trip depart="7767" from="-A" to="C" color="yellow" type="truck" id="veh2725"/>
        <trip depart="7795" from="-A" to="C" color="yellow" type="truck" id="veh2728"/>
        <trip depart="7911" from="-F" to="H" color="yellow" type="truck" id="veh2757"/>
        <trip depart="8013" from="-D" to="B" color="yellow" type="truck" id="veh2784"/>
        <trip depart="8081" from="-H" to="F" color="yellow" type="truck" id="veh2807"/>
        <trip depart="8170" from="-C" to="A" color="yellow" type="truck" id="veh2834"/>
        <trip depart="8240" from="-C" to="A" color="yellow" type="truck" id="veh2859"/>
        <trip depart="8273" from="-A" to="C" color="yellow" type="truck" id="veh2867"/>
        <trip depart="8276" from="-F" to="H" color="yellow" type="truck" id="veh2868"/>
        <trip depart="8313" from="-E" to="G" color="yellow" type="truck" id="veh2877"/>
        <trip depart="8335" from="-D" to="B" color="yellow" type="truck" id="veh2883"/>
        <trip depart="8361" from="-G" to="E" color="yellow" type="truck" id="veh2894"/>
        <trip depart="8364" from="-G" to="E" color="yellow" type="truck" id="veh2895"/>
        <trip depart="8410" from="-G" to="E" color="yellow" type="truck" id="veh2913"/>
        <trip depart="8449" from="-A" to="C" color="yellow" type="truck" id="veh2929"/>
        <trip depart="8481" from="-D" to="B" color="yellow" type="truck" id="veh2937"/>
        <trip depart="8589" from="-G" to="E" color="yellow" type="truck" id="veh2968"/>
        <trip depart="8697" from="-G" to="E" color="yellow" type="truck" id="veh3014"/>
        <trip depart="8740" from="-D" to="B" color="yellow" type="truck" id="veh3025"/>
        <trip depart="8754" from="-D" to="B" color="yellow" type="truck" id="veh3028"/>
        <trip depart="8858" from="-E" to="G" color="yellow" type="truck" id="veh3063"/>
        <trip depart="8916" from="-B" to="D" color="yellow" type="truck" id="veh3083"/>
        <trip depart="8958" from="-A" to="C" color="yellow" type="truck" id="veh3094"/>


</routes>
