<?xml version="1.0" encoding="UTF-8"?>

<!-- generated on 03/09/21 13:00:00 by Eclipse SUMO netedit Version 1.7.0
<configuration xmlns:xsi="http://www.w3.org/2001/XMLSchema-instance" xsi:noNamespaceSchemaLocation="http://sumo.dlr.de/xsd/netconvertConfiguration.xsd">

    <input>
        <sumo-net-file value="C:\Users\Sandrus\Documents\Research\SUMO-GitGrupo\SUMO-emissions\SUMO_emissions_runner\emissions_BIG_experiment2.net.xml"/>
    </input>

    <output>
        <output-file value="C:\Users\Sandrus\Documents\Research\SUMO-GitGrupo\SUMO-emissions\SUMO_emissions_runner\emissions_BIG_experiment2.net.xml"/>
    </output>

    <processing>
        <geometry.min-radius.fix.railways value="false"/>
        <geometry.max-grade.fix value="false"/>
        <offset.disable-normalization value="true"/>
        <lefthand value="false"/>
    </processing>

    <junctions>
        <no-turnarounds value="true"/>
        <junctions.corner-detail value="5"/>
        <junctions.limit-turn-speed value="5.5"/>
        <rectangular-lane-cut value="false"/>
    </junctions>

    <pedestrian>
        <walkingareas value="false"/>
    </pedestrian>

    <report>
        <aggregate-warnings value="5"/>
    </report>

</configuration>
-->

<net version="1.6" junctionCornerDetail="5" limitTurnSpeed="5.50" xmlns:xsi="http://www.w3.org/2001/XMLSchema-instance" xsi:noNamespaceSchemaLocation="http://sumo.dlr.de/xsd/net_file.xsd">

    <location netOffset="0.00,0.00" convBoundary="-1750.00,-14000.00,14000.00,1750.00" origBoundary="-10000000000.00,-10000000000.00,10000000000.00,10000000000.00" projParameter="!"/>

    <edge id=":gneJ103_0" function="internal">
        <lane id=":gneJ103_0_0" index="0" speed="13.89" length="0.10" shape="0.00,-5248.40 0.00,-5248.40"/>
    </edge>
    <edge id=":gneJ103_1" function="internal">
        <lane id=":gneJ103_1_0" index="0" speed="13.89" length="0.10" shape="0.00,-5251.60 0.00,-5251.60"/>
    </edge>
    <edge id=":gneJ104_0" function="internal">
        <lane id=":gneJ104_0_0" index="0" speed="13.89" length="0.10" shape="0.00,-6998.40 0.00,-6998.40"/>
    </edge>
    <edge id=":gneJ104_1" function="internal">
        <lane id=":gneJ104_1_0" index="0" speed="13.89" length="0.10" shape="0.00,-7001.60 0.00,-7001.60"/>
    </edge>
    <edge id=":gneJ118_0" function="internal">
        <lane id=":gneJ118_0_0" index="0" speed="13.89" length="0.10" shape="1750.00,-5248.40 1750.00,-5248.40"/>
    </edge>
    <edge id=":gneJ118_1" function="internal">
        <lane id=":gneJ118_1_0" index="0" speed="13.89" length="0.10" shape="1750.00,-5251.60 1750.00,-5251.60"/>
    </edge>
    <edge id=":gneJ119_0" function="internal">
        <lane id=":gneJ119_0_0" index="0" speed="13.89" length="0.10" shape="1750.00,-6998.40 1750.00,-6998.40"/>
    </edge>
    <edge id=":gneJ119_1" function="internal">
        <lane id=":gneJ119_1_0" index="0" speed="13.89" length="0.10" shape="1750.00,-7001.60 1750.00,-7001.60"/>
    </edge>
    <edge id=":gneJ128_0" function="internal">
        <lane id=":gneJ128_0_0" index="0" speed="6.61" length="15.43" shape="2055.18,-2048.82 2050.42,-2047.24 2047.77,-2047.77 2047.24,-2050.42 2048.82,-2055.18"/>
    </edge>
    <edge id=":gneJ128_1" function="internal">
        <lane id=":gneJ128_1_0" index="0" speed="4.18" length="5.14" shape="2051.73,-2053.85 2051.21,-2052.27 2051.38,-2051.38 2052.27,-2051.21 2053.85,-2051.73"/>
    </edge>
    <edge id=":gneJ131_0" function="internal">
        <lane id=":gneJ131_0_0" index="0" speed="5.78" length="9.16" shape="5248.40,-3491.03 5248.03,-3493.70 5246.92,-3495.23 5245.08,-3495.61 5242.50,-3494.84"/>
    </edge>
    <edge id=":gneJ131_1" function="internal">
        <lane id=":gneJ131_1_0" index="0" speed="13.89" length="16.17" shape="5248.40,-3491.03 5248.40,-3507.20"/>
    </edge>
    <edge id=":gneJ131_2" function="internal">
        <lane id=":gneJ131_2_0" index="0" speed="8.37" length="7.00" shape="5248.40,-3491.03 5248.95,-3495.66 5250.00,-3497.76"/>
    </edge>
    <edge id=":gneJ131_12" function="internal">
        <lane id=":gneJ131_12_0" index="0" speed="8.37" length="8.64" shape="5250.00,-3497.76 5250.60,-3498.96 5253.35,-3500.94 5257.20,-3501.60"/>
    </edge>
    <edge id=":gneJ131_3" function="internal">
        <lane id=":gneJ131_3_0" index="0" speed="6.96" length="10.49" shape="5257.20,-3498.40 5254.75,-3497.94 5253.00,-3496.56 5251.95,-3494.26 5251.60,-3491.03"/>
    </edge>
    <edge id=":gneJ131_4" function="internal">
        <lane id=":gneJ131_4_0" index="0" speed="13.89" length="15.23" shape="5257.20,-3498.40 5253.43,-3498.13 5249.68,-3497.39 5246.01,-3496.27 5242.50,-3494.84"/>
    </edge>
    <edge id=":gneJ131_5" function="internal">
        <lane id=":gneJ131_5_0" index="0" speed="8.00" length="14.19" shape="5257.20,-3498.40 5253.35,-3498.95 5250.60,-3500.60 5248.95,-3503.35 5248.40,-3507.20"/>
    </edge>
    <edge id=":gneJ131_6" function="internal">
        <lane id=":gneJ131_6_0" index="0" speed="6.51" length="9.03" shape="5251.60,-3507.20 5251.95,-3504.75 5253.00,-3503.00 5254.75,-3501.95 5257.20,-3501.60"/>
    </edge>
    <edge id=":gneJ131_7" function="internal">
        <lane id=":gneJ131_7_0" index="0" speed="13.89" length="16.17" shape="5251.60,-3507.20 5251.60,-3491.03"/>
    </edge>
    <edge id=":gneJ131_8" function="internal">
        <lane id=":gneJ131_8_0" index="0" speed="10.29" length="6.17" shape="5251.60,-3507.20 5251.03,-3503.34 5250.00,-3501.32"/>
    </edge>
    <edge id=":gneJ131_13" function="internal">
        <lane id=":gneJ131_13_0" index="0" speed="10.29" length="10.11" shape="5250.00,-3501.32 5249.32,-3499.99 5246.48,-3497.16 5242.50,-3494.84"/>
    </edge>
    <edge id=":gneJ131_9" function="internal">
        <lane id=":gneJ131_9_0" index="0" speed="9.11" length="12.61" shape="5241.17,-3497.75 5244.34,-3499.57 5246.59,-3501.75 5247.95,-3504.30 5248.40,-3507.20"/>
    </edge>
    <edge id=":gneJ131_10" function="internal">
        <lane id=":gneJ131_10_0" index="0" speed="13.89" length="16.58" shape="5241.17,-3497.75 5244.90,-3499.23 5249.02,-3500.45 5253.23,-3501.29 5257.20,-3501.60"/>
    </edge>
    <edge id=":gneJ131_11" function="internal">
        <lane id=":gneJ131_11_0" index="0" speed="7.46" length="16.17" shape="5241.17,-3497.75 5245.74,-3499.11 5248.99,-3498.44 5250.95,-3495.75 5251.60,-3491.03"/>
    </edge>
    <edge id=":gneJ132_0" function="internal">
        <lane id=":gneJ132_0_0" index="0" speed="6.96" length="10.49" shape="6998.40,-3491.03 6998.05,-3494.26 6997.00,-3496.56 6995.25,-3497.94 6992.80,-3498.40"/>
    </edge>
    <edge id=":gneJ132_1" function="internal">
        <lane id=":gneJ132_1_0" index="0" speed="13.89" length="16.17" shape="6998.40,-3491.03 6998.40,-3507.20"/>
    </edge>
    <edge id=":gneJ132_2" function="internal">
        <lane id=":gneJ132_2_0" index="0" speed="7.46" length="6.37" shape="6998.40,-3491.03 6999.05,-3495.75 7000.00,-3497.05"/>
    </edge>
    <edge id=":gneJ132_12" function="internal">
        <lane id=":gneJ132_12_0" index="0" speed="7.46" length="9.80" shape="7000.00,-3497.05 7001.01,-3498.44 7004.26,-3499.11 7008.83,-3497.75"/>
    </edge>
    <edge id=":gneJ132_3" function="internal">
        <lane id=":gneJ132_3_0" index="0" speed="5.78" length="9.16" shape="7007.50,-3494.84 7004.92,-3495.61 7003.08,-3495.23 7001.97,-3493.70 7001.60,-3491.03"/>
    </edge>
    <edge id=":gneJ132_4" function="internal">
        <lane id=":gneJ132_4_0" index="0" speed="13.89" length="15.23" shape="7007.50,-3494.84 7003.99,-3496.27 7000.32,-3497.39 6996.57,-3498.13 6992.80,-3498.40"/>
    </edge>
    <edge id=":gneJ132_5" function="internal">
        <lane id=":gneJ132_5_0" index="0" speed="10.29" length="16.28" shape="7007.50,-3494.84 7003.52,-3497.16 7000.68,-3499.99 6998.97,-3503.34 6998.40,-3507.20"/>
    </edge>
    <edge id=":gneJ132_6" function="internal">
        <lane id=":gneJ132_6_0" index="0" speed="9.11" length="12.61" shape="7001.60,-3507.20 7002.05,-3504.30 7003.41,-3501.75 7005.66,-3499.57 7008.83,-3497.75"/>
    </edge>
    <edge id=":gneJ132_7" function="internal">
        <lane id=":gneJ132_7_0" index="0" speed="13.89" length="16.17" shape="7001.60,-3507.20 7001.60,-3491.03"/>
    </edge>
    <edge id=":gneJ132_8" function="internal">
        <lane id=":gneJ132_8_0" index="0" speed="8.00" length="5.93" shape="7001.60,-3507.20 7001.05,-3503.35 7000.00,-3501.60"/>
    </edge>
    <edge id=":gneJ132_13" function="internal">
        <lane id=":gneJ132_13_0" index="0" speed="8.00" length="8.26" shape="7000.00,-3501.60 6999.40,-3500.60 6996.65,-3498.95 6992.80,-3498.40"/>
    </edge>
    <edge id=":gneJ132_9" function="internal">
        <lane id=":gneJ132_9_0" index="0" speed="6.51" length="9.03" shape="6992.80,-3501.60 6995.25,-3501.95 6997.00,-3503.00 6998.05,-3504.75 6998.40,-3507.20"/>
    </edge>
    <edge id=":gneJ132_10" function="internal">
        <lane id=":gneJ132_10_0" index="0" speed="13.89" length="16.58" shape="6992.80,-3501.60 6996.77,-3501.29 7000.98,-3500.45 7005.10,-3499.23 7008.83,-3497.75"/>
    </edge>
    <edge id=":gneJ132_11" function="internal">
        <lane id=":gneJ132_11_0" index="0" speed="8.37" length="15.64" shape="6992.80,-3501.60 6996.65,-3500.94 6999.40,-3498.96 7001.05,-3495.66 7001.60,-3491.03"/>
    </edge>
    <edge id=":gneJ133_0" function="internal">
        <lane id=":gneJ133_0_0" index="0" speed="6.61" length="15.43" shape="10201.18,-2055.18 10202.76,-2050.42 10202.23,-2047.77 10199.58,-2047.24 10194.82,-2048.82"/>
    </edge>
    <edge id=":gneJ133_1" function="internal">
        <lane id=":gneJ133_1_0" index="0" speed="4.18" length="5.14" shape="10196.15,-2051.73 10197.73,-2051.21 10198.62,-2051.38 10198.79,-2052.27 10198.27,-2053.85"/>
    </edge>
    <edge id=":gneJ138_0" function="internal">
        <lane id=":gneJ138_0_0" index="0" speed="9.11" length="12.61" shape="3507.20,-5248.40 3504.30,-5247.95 3501.75,-5246.59 3499.57,-5244.34 3497.75,-5241.17"/>
    </edge>
    <edge id=":gneJ138_1" function="internal">
        <lane id=":gneJ138_1_0" index="0" speed="13.89" length="16.17" shape="3507.20,-5248.40 3491.03,-5248.40"/>
    </edge>
    <edge id=":gneJ138_2" function="internal">
        <lane id=":gneJ138_2_0" index="0" speed="8.00" length="5.93" shape="3507.20,-5248.40 3503.35,-5248.95 3501.60,-5250.00"/>
    </edge>
    <edge id=":gneJ138_12" function="internal">
        <lane id=":gneJ138_12_0" index="0" speed="8.00" length="8.26" shape="3501.60,-5250.00 3500.60,-5250.60 3498.95,-5253.35 3498.40,-5257.20"/>
    </edge>
    <edge id=":gneJ138_3" function="internal">
        <lane id=":gneJ138_3_0" index="0" speed="6.51" length="9.03" shape="3501.60,-5257.20 3501.95,-5254.75 3503.00,-5253.00 3504.75,-5251.95 3507.20,-5251.60"/>
    </edge>
    <edge id=":gneJ138_4" function="internal">
        <lane id=":gneJ138_4_0" index="0" speed="13.89" length="16.58" shape="3501.60,-5257.20 3501.29,-5253.23 3500.45,-5249.02 3499.23,-5244.90 3497.75,-5241.17"/>
    </edge>
    <edge id=":gneJ138_5" function="internal">
        <lane id=":gneJ138_5_0" index="0" speed="8.37" length="15.64" shape="3501.60,-5257.20 3500.94,-5253.35 3498.96,-5250.60 3495.66,-5248.95 3491.03,-5248.40"/>
    </edge>
    <edge id=":gneJ138_6" function="internal">
        <lane id=":gneJ138_6_0" index="0" speed="6.96" length="10.49" shape="3491.03,-5251.60 3494.26,-5251.95 3496.56,-5253.00 3497.94,-5254.75 3498.40,-5257.20"/>
    </edge>
    <edge id=":gneJ138_7" function="internal">
        <lane id=":gneJ138_7_0" index="0" speed="13.89" length="16.17" shape="3491.03,-5251.60 3507.20,-5251.60"/>
    </edge>
    <edge id=":gneJ138_8" function="internal">
        <lane id=":gneJ138_8_0" index="0" speed="7.46" length="6.37" shape="3491.03,-5251.60 3495.75,-5250.95 3497.05,-5250.00"/>
    </edge>
    <edge id=":gneJ138_13" function="internal">
        <lane id=":gneJ138_13_0" index="0" speed="7.46" length="9.80" shape="3497.05,-5250.00 3498.44,-5248.99 3499.11,-5245.74 3497.75,-5241.17"/>
    </edge>
    <edge id=":gneJ138_9" function="internal">
        <lane id=":gneJ138_9_0" index="0" speed="5.78" length="9.16" shape="3494.84,-5242.50 3495.61,-5245.08 3495.23,-5246.92 3493.70,-5248.03 3491.03,-5248.40"/>
    </edge>
    <edge id=":gneJ138_10" function="internal">
        <lane id=":gneJ138_10_0" index="0" speed="13.89" length="15.23" shape="3494.84,-5242.50 3496.27,-5246.01 3497.39,-5249.68 3498.13,-5253.43 3498.40,-5257.20"/>
    </edge>
    <edge id=":gneJ138_11" function="internal">
        <lane id=":gneJ138_11_0" index="0" speed="10.29" length="16.28" shape="3494.84,-5242.50 3497.16,-5246.48 3499.99,-5249.32 3503.34,-5251.03 3507.20,-5251.60"/>
    </edge>
    <edge id=":gneJ139_0" function="internal">
        <lane id=":gneJ139_0_0" index="0" speed="6.51" length="9.03" shape="5248.40,-5242.80 5248.05,-5245.25 5247.00,-5247.00 5245.25,-5248.05 5242.80,-5248.40"/>
    </edge>
    <edge id=":gneJ139_1" function="internal">
        <lane id=":gneJ139_1_0" index="0" speed="13.89" length="14.40" shape="5248.40,-5242.80 5248.40,-5257.20"/>
    </edge>
    <edge id=":gneJ139_2" function="internal">
        <lane id=":gneJ139_2_0" index="0" speed="8.00" length="5.93" shape="5248.40,-5242.80 5248.95,-5246.65 5250.00,-5248.40"/>
    </edge>
    <edge id=":gneJ139_12" function="internal">
        <lane id=":gneJ139_12_0" index="0" speed="8.00" length="8.26" shape="5250.00,-5248.40 5250.60,-5249.40 5253.35,-5251.05 5257.20,-5251.60"/>
    </edge>
    <edge id=":gneJ139_3" function="internal">
        <lane id=":gneJ139_3_0" index="0" speed="6.51" length="9.03" shape="5257.20,-5248.40 5254.75,-5248.05 5253.00,-5247.00 5251.95,-5245.25 5251.60,-5242.80"/>
    </edge>
    <edge id=":gneJ139_4" function="internal">
        <lane id=":gneJ139_4_0" index="0" speed="13.89" length="14.40" shape="5257.20,-5248.40 5242.80,-5248.40"/>
    </edge>
    <edge id=":gneJ139_5" function="internal">
        <lane id=":gneJ139_5_0" index="0" speed="8.00" length="14.19" shape="5257.20,-5248.40 5253.35,-5248.95 5250.60,-5250.60 5248.95,-5253.35 5248.40,-5257.20"/>
    </edge>
    <edge id=":gneJ139_6" function="internal">
        <lane id=":gneJ139_6_0" index="0" speed="6.51" length="9.03" shape="5251.60,-5257.20 5251.95,-5254.75 5253.00,-5253.00 5254.75,-5251.95 5257.20,-5251.60"/>
    </edge>
    <edge id=":gneJ139_7" function="internal">
        <lane id=":gneJ139_7_0" index="0" speed="13.89" length="14.40" shape="5251.60,-5257.20 5251.60,-5242.80"/>
    </edge>
    <edge id=":gneJ139_8" function="internal">
        <lane id=":gneJ139_8_0" index="0" speed="8.00" length="5.93" shape="5251.60,-5257.20 5251.05,-5253.35 5250.00,-5251.60"/>
    </edge>
    <edge id=":gneJ139_13" function="internal">
        <lane id=":gneJ139_13_0" index="0" speed="8.00" length="8.26" shape="5250.00,-5251.60 5249.40,-5250.60 5246.65,-5248.95 5242.80,-5248.40"/>
    </edge>
    <edge id=":gneJ139_9" function="internal">
        <lane id=":gneJ139_9_0" index="0" speed="6.51" length="9.03" shape="5242.80,-5251.60 5245.25,-5251.95 5247.00,-5253.00 5248.05,-5254.75 5248.40,-5257.20"/>
    </edge>
    <edge id=":gneJ139_10" function="internal">
        <lane id=":gneJ139_10_0" index="0" speed="13.89" length="14.40" shape="5242.80,-5251.60 5257.20,-5251.60"/>
    </edge>
    <edge id=":gneJ139_11" function="internal">
        <lane id=":gneJ139_11_0" index="0" speed="8.00" length="14.19" shape="5242.80,-5251.60 5246.65,-5251.05 5249.40,-5249.40 5251.05,-5246.65 5251.60,-5242.80"/>
    </edge>
    <edge id=":gneJ140_0" function="internal">
        <lane id=":gneJ140_0_0" index="0" speed="6.51" length="9.03" shape="6998.40,-5242.80 6998.05,-5245.25 6997.00,-5247.00 6995.25,-5248.05 6992.80,-5248.40"/>
    </edge>
    <edge id=":gneJ140_1" function="internal">
        <lane id=":gneJ140_1_0" index="0" speed="13.89" length="14.40" shape="6998.40,-5242.80 6998.40,-5257.20"/>
    </edge>
    <edge id=":gneJ140_2" function="internal">
        <lane id=":gneJ140_2_0" index="0" speed="8.00" length="5.93" shape="6998.40,-5242.80 6998.95,-5246.65 7000.00,-5248.40"/>
    </edge>
    <edge id=":gneJ140_12" function="internal">
        <lane id=":gneJ140_12_0" index="0" speed="8.00" length="8.26" shape="7000.00,-5248.40 7000.60,-5249.40 7003.35,-5251.05 7007.20,-5251.60"/>
    </edge>
    <edge id=":gneJ140_3" function="internal">
        <lane id=":gneJ140_3_0" index="0" speed="6.51" length="9.03" shape="7007.20,-5248.40 7004.75,-5248.05 7003.00,-5247.00 7001.95,-5245.25 7001.60,-5242.80"/>
    </edge>
    <edge id=":gneJ140_4" function="internal">
        <lane id=":gneJ140_4_0" index="0" speed="13.89" length="14.40" shape="7007.20,-5248.40 6992.80,-5248.40"/>
    </edge>
    <edge id=":gneJ140_5" function="internal">
        <lane id=":gneJ140_5_0" index="0" speed="8.00" length="14.19" shape="7007.20,-5248.40 7003.35,-5248.95 7000.60,-5250.60 6998.95,-5253.35 6998.40,-5257.20"/>
    </edge>
    <edge id=":gneJ140_6" function="internal">
        <lane id=":gneJ140_6_0" index="0" speed="6.51" length="9.03" shape="7001.60,-5257.20 7001.95,-5254.75 7003.00,-5253.00 7004.75,-5251.95 7007.20,-5251.60"/>
    </edge>
    <edge id=":gneJ140_7" function="internal">
        <lane id=":gneJ140_7_0" index="0" speed="13.89" length="14.40" shape="7001.60,-5257.20 7001.60,-5242.80"/>
    </edge>
    <edge id=":gneJ140_8" function="internal">
        <lane id=":gneJ140_8_0" index="0" speed="8.00" length="5.93" shape="7001.60,-5257.20 7001.05,-5253.35 7000.00,-5251.60"/>
    </edge>
    <edge id=":gneJ140_13" function="internal">
        <lane id=":gneJ140_13_0" index="0" speed="8.00" length="8.26" shape="7000.00,-5251.60 6999.40,-5250.60 6996.65,-5248.95 6992.80,-5248.40"/>
    </edge>
    <edge id=":gneJ140_9" function="internal">
        <lane id=":gneJ140_9_0" index="0" speed="6.51" length="9.03" shape="6992.80,-5251.60 6995.25,-5251.95 6997.00,-5253.00 6998.05,-5254.75 6998.40,-5257.20"/>
    </edge>
    <edge id=":gneJ140_10" function="internal">
        <lane id=":gneJ140_10_0" index="0" speed="13.89" length="14.40" shape="6992.80,-5251.60 7007.20,-5251.60"/>
    </edge>
    <edge id=":gneJ140_11" function="internal">
        <lane id=":gneJ140_11_0" index="0" speed="8.00" length="14.19" shape="6992.80,-5251.60 6996.65,-5251.05 6999.40,-5249.40 7001.05,-5246.65 7001.60,-5242.80"/>
    </edge>
    <edge id=":gneJ141_0" function="internal">
        <lane id=":gneJ141_0_0" index="0" speed="9.11" length="12.61" shape="8752.25,-5241.17 8750.43,-5244.34 8748.25,-5246.59 8745.70,-5247.95 8742.80,-5248.40"/>
    </edge>
    <edge id=":gneJ141_1" function="internal">
        <lane id=":gneJ141_1_0" index="0" speed="13.89" length="16.58" shape="8752.25,-5241.17 8750.77,-5244.90 8749.55,-5249.02 8748.71,-5253.23 8748.40,-5257.20"/>
    </edge>
    <edge id=":gneJ141_2" function="internal">
        <lane id=":gneJ141_2_0" index="0" speed="7.46" length="16.17" shape="8752.25,-5241.17 8750.89,-5245.74 8751.56,-5248.99 8754.25,-5250.95 8758.97,-5251.60"/>
    </edge>
    <edge id=":gneJ141_3" function="internal">
        <lane id=":gneJ141_3_0" index="0" speed="5.78" length="9.16" shape="8758.97,-5248.40 8756.30,-5248.03 8754.77,-5246.92 8754.39,-5245.08 8755.16,-5242.50"/>
    </edge>
    <edge id=":gneJ141_4" function="internal">
        <lane id=":gneJ141_4_0" index="0" speed="13.89" length="16.17" shape="8758.97,-5248.40 8742.80,-5248.40"/>
    </edge>
    <edge id=":gneJ141_5" function="internal">
        <lane id=":gneJ141_5_0" index="0" speed="8.37" length="7.00" shape="8758.97,-5248.40 8754.34,-5248.95 8752.24,-5250.00"/>
    </edge>
    <edge id=":gneJ141_12" function="internal">
        <lane id=":gneJ141_12_0" index="0" speed="8.37" length="8.64" shape="8752.24,-5250.00 8751.04,-5250.60 8749.06,-5253.35 8748.40,-5257.20"/>
    </edge>
    <edge id=":gneJ141_6" function="internal">
        <lane id=":gneJ141_6_0" index="0" speed="6.96" length="10.49" shape="8751.60,-5257.20 8752.06,-5254.75 8753.44,-5253.00 8755.74,-5251.95 8758.97,-5251.60"/>
    </edge>
    <edge id=":gneJ141_7" function="internal">
        <lane id=":gneJ141_7_0" index="0" speed="13.89" length="15.23" shape="8751.60,-5257.20 8751.87,-5253.43 8752.61,-5249.68 8753.73,-5246.01 8755.16,-5242.50"/>
    </edge>
    <edge id=":gneJ141_8" function="internal">
        <lane id=":gneJ141_8_0" index="0" speed="8.00" length="14.19" shape="8751.60,-5257.20 8751.05,-5253.35 8749.40,-5250.60 8746.65,-5248.95 8742.80,-5248.40"/>
    </edge>
    <edge id=":gneJ141_9" function="internal">
        <lane id=":gneJ141_9_0" index="0" speed="6.51" length="9.03" shape="8742.80,-5251.60 8745.25,-5251.95 8747.00,-5253.00 8748.05,-5254.75 8748.40,-5257.20"/>
    </edge>
    <edge id=":gneJ141_10" function="internal">
        <lane id=":gneJ141_10_0" index="0" speed="13.89" length="16.17" shape="8742.80,-5251.60 8758.97,-5251.60"/>
    </edge>
    <edge id=":gneJ141_11" function="internal">
        <lane id=":gneJ141_11_0" index="0" speed="10.29" length="6.17" shape="8742.80,-5251.60 8746.66,-5251.03 8748.68,-5250.00"/>
    </edge>
    <edge id=":gneJ141_13" function="internal">
        <lane id=":gneJ141_13_0" index="0" speed="10.29" length="10.11" shape="8748.68,-5250.00 8750.01,-5249.32 8752.84,-5246.48 8755.16,-5242.50"/>
    </edge>
    <edge id=":gneJ142_0" function="internal">
        <lane id=":gneJ142_0_0" index="0" speed="13.89" length="0.10" shape="10500.00,-5248.40 10500.00,-5248.40"/>
    </edge>
    <edge id=":gneJ142_1" function="internal">
        <lane id=":gneJ142_1_0" index="0" speed="13.89" length="0.10" shape="10500.00,-5251.60 10500.00,-5251.60"/>
    </edge>
    <edge id=":gneJ143_0" function="internal">
        <lane id=":gneJ143_0_0" index="0" speed="13.89" length="0.10" shape="12250.00,-5248.40 12250.00,-5248.40"/>
    </edge>
    <edge id=":gneJ143_1" function="internal">
        <lane id=":gneJ143_1_0" index="0" speed="13.89" length="0.10" shape="12250.00,-5251.60 12250.00,-5251.60"/>
    </edge>
    <edge id=":gneJ144_0" function="internal">
        <lane id=":gneJ144_0_0" index="0" speed="6.96" length="10.49" shape="3498.40,-6992.80 3497.94,-6995.25 3496.56,-6997.00 3494.26,-6998.05 3491.03,-6998.40"/>
    </edge>
    <edge id=":gneJ144_1" function="internal">
        <lane id=":gneJ144_1_0" index="0" speed="13.89" length="15.23" shape="3498.40,-6992.80 3498.13,-6996.57 3497.39,-7000.32 3496.27,-7003.99 3494.84,-7007.50"/>
    </edge>
    <edge id=":gneJ144_2" function="internal">
        <lane id=":gneJ144_2_0" index="0" speed="8.00" length="14.19" shape="3498.40,-6992.80 3498.95,-6996.65 3500.60,-6999.40 3503.35,-7001.05 3507.20,-7001.60"/>
    </edge>
    <edge id=":gneJ144_3" function="internal">
        <lane id=":gneJ144_3_0" index="0" speed="6.51" length="9.03" shape="3507.20,-6998.40 3504.75,-6998.05 3503.00,-6997.00 3501.95,-6995.25 3501.60,-6992.80"/>
    </edge>
    <edge id=":gneJ144_4" function="internal">
        <lane id=":gneJ144_4_0" index="0" speed="13.89" length="16.17" shape="3507.20,-6998.40 3491.03,-6998.40"/>
    </edge>
    <edge id=":gneJ144_5" function="internal">
        <lane id=":gneJ144_5_0" index="0" speed="10.29" length="6.17" shape="3507.20,-6998.40 3503.34,-6998.97 3501.32,-7000.00"/>
    </edge>
    <edge id=":gneJ144_12" function="internal">
        <lane id=":gneJ144_12_0" index="0" speed="10.29" length="10.11" shape="3501.32,-7000.00 3499.99,-7000.68 3497.16,-7003.52 3494.84,-7007.50"/>
    </edge>
    <edge id=":gneJ144_6" function="internal">
        <lane id=":gneJ144_6_0" index="0" speed="9.11" length="12.61" shape="3497.75,-7008.83 3499.57,-7005.66 3501.75,-7003.41 3504.30,-7002.05 3507.20,-7001.60"/>
    </edge>
    <edge id=":gneJ144_7" function="internal">
        <lane id=":gneJ144_7_0" index="0" speed="13.89" length="16.58" shape="3497.75,-7008.83 3499.23,-7005.10 3500.45,-7000.98 3501.29,-6996.77 3501.60,-6992.80"/>
    </edge>
    <edge id=":gneJ144_8" function="internal">
        <lane id=":gneJ144_8_0" index="0" speed="7.46" length="16.17" shape="3497.75,-7008.83 3499.11,-7004.26 3498.44,-7001.01 3495.75,-6999.05 3491.03,-6998.40"/>
    </edge>
    <edge id=":gneJ144_9" function="internal">
        <lane id=":gneJ144_9_0" index="0" speed="5.78" length="9.16" shape="3491.03,-7001.60 3493.70,-7001.97 3495.23,-7003.08 3495.61,-7004.92 3494.84,-7007.50"/>
    </edge>
    <edge id=":gneJ144_10" function="internal">
        <lane id=":gneJ144_10_0" index="0" speed="13.89" length="16.17" shape="3491.03,-7001.60 3507.20,-7001.60"/>
    </edge>
    <edge id=":gneJ144_11" function="internal">
        <lane id=":gneJ144_11_0" index="0" speed="8.37" length="7.00" shape="3491.03,-7001.60 3495.66,-7001.05 3497.76,-7000.00"/>
    </edge>
    <edge id=":gneJ144_13" function="internal">
        <lane id=":gneJ144_13_0" index="0" speed="8.37" length="8.64" shape="3497.76,-7000.00 3498.96,-6999.40 3500.94,-6996.65 3501.60,-6992.80"/>
    </edge>
    <edge id=":gneJ145_0" function="internal">
        <lane id=":gneJ145_0_0" index="0" speed="6.51" length="9.03" shape="5248.40,-6992.80 5248.05,-6995.25 5247.00,-6997.00 5245.25,-6998.05 5242.80,-6998.40"/>
    </edge>
    <edge id=":gneJ145_1" function="internal">
        <lane id=":gneJ145_1_0" index="0" speed="13.89" length="14.40" shape="5248.40,-6992.80 5248.40,-7007.20"/>
    </edge>
    <edge id=":gneJ145_2" function="internal">
        <lane id=":gneJ145_2_0" index="0" speed="8.00" length="5.93" shape="5248.40,-6992.80 5248.95,-6996.65 5250.00,-6998.40"/>
    </edge>
    <edge id=":gneJ145_12" function="internal">
        <lane id=":gneJ145_12_0" index="0" speed="8.00" length="8.26" shape="5250.00,-6998.40 5250.60,-6999.40 5253.35,-7001.05 5257.20,-7001.60"/>
    </edge>
    <edge id=":gneJ145_3" function="internal">
        <lane id=":gneJ145_3_0" index="0" speed="6.51" length="9.03" shape="5257.20,-6998.40 5254.75,-6998.05 5253.00,-6997.00 5251.95,-6995.25 5251.60,-6992.80"/>
    </edge>
    <edge id=":gneJ145_4" function="internal">
        <lane id=":gneJ145_4_0" index="0" speed="13.89" length="14.40" shape="5257.20,-6998.40 5242.80,-6998.40"/>
    </edge>
    <edge id=":gneJ145_5" function="internal">
        <lane id=":gneJ145_5_0" index="0" speed="8.00" length="14.19" shape="5257.20,-6998.40 5253.35,-6998.95 5250.60,-7000.60 5248.95,-7003.35 5248.40,-7007.20"/>
    </edge>
    <edge id=":gneJ145_6" function="internal">
        <lane id=":gneJ145_6_0" index="0" speed="6.51" length="9.03" shape="5251.60,-7007.20 5251.95,-7004.75 5253.00,-7003.00 5254.75,-7001.95 5257.20,-7001.60"/>
    </edge>
    <edge id=":gneJ145_7" function="internal">
        <lane id=":gneJ145_7_0" index="0" speed="13.89" length="14.40" shape="5251.60,-7007.20 5251.60,-6992.80"/>
    </edge>
    <edge id=":gneJ145_8" function="internal">
        <lane id=":gneJ145_8_0" index="0" speed="8.00" length="5.93" shape="5251.60,-7007.20 5251.05,-7003.35 5250.00,-7001.60"/>
    </edge>
    <edge id=":gneJ145_13" function="internal">
        <lane id=":gneJ145_13_0" index="0" speed="8.00" length="8.26" shape="5250.00,-7001.60 5249.40,-7000.60 5246.65,-6998.95 5242.80,-6998.40"/>
    </edge>
    <edge id=":gneJ145_9" function="internal">
        <lane id=":gneJ145_9_0" index="0" speed="6.51" length="9.03" shape="5242.80,-7001.60 5245.25,-7001.95 5247.00,-7003.00 5248.05,-7004.75 5248.40,-7007.20"/>
    </edge>
    <edge id=":gneJ145_10" function="internal">
        <lane id=":gneJ145_10_0" index="0" speed="13.89" length="14.40" shape="5242.80,-7001.60 5257.20,-7001.60"/>
    </edge>
    <edge id=":gneJ145_11" function="internal">
        <lane id=":gneJ145_11_0" index="0" speed="8.00" length="14.19" shape="5242.80,-7001.60 5246.65,-7001.05 5249.40,-6999.40 5251.05,-6996.65 5251.60,-6992.80"/>
    </edge>
    <edge id=":gneJ146_0" function="internal">
        <lane id=":gneJ146_0_0" index="0" speed="6.51" length="9.03" shape="6998.40,-6992.80 6998.05,-6995.25 6997.00,-6997.00 6995.25,-6998.05 6992.80,-6998.40"/>
    </edge>
    <edge id=":gneJ146_1" function="internal">
        <lane id=":gneJ146_1_0" index="0" speed="13.89" length="14.40" shape="6998.40,-6992.80 6998.40,-7007.20"/>
    </edge>
    <edge id=":gneJ146_2" function="internal">
        <lane id=":gneJ146_2_0" index="0" speed="8.00" length="5.93" shape="6998.40,-6992.80 6998.95,-6996.65 7000.00,-6998.40"/>
    </edge>
    <edge id=":gneJ146_12" function="internal">
        <lane id=":gneJ146_12_0" index="0" speed="8.00" length="8.26" shape="7000.00,-6998.40 7000.60,-6999.40 7003.35,-7001.05 7007.20,-7001.60"/>
    </edge>
    <edge id=":gneJ146_3" function="internal">
        <lane id=":gneJ146_3_0" index="0" speed="6.51" length="9.03" shape="7007.20,-6998.40 7004.75,-6998.05 7003.00,-6997.00 7001.95,-6995.25 7001.60,-6992.80"/>
    </edge>
    <edge id=":gneJ146_4" function="internal">
        <lane id=":gneJ146_4_0" index="0" speed="13.89" length="14.40" shape="7007.20,-6998.40 6992.80,-6998.40"/>
    </edge>
    <edge id=":gneJ146_5" function="internal">
        <lane id=":gneJ146_5_0" index="0" speed="8.00" length="14.19" shape="7007.20,-6998.40 7003.35,-6998.95 7000.60,-7000.60 6998.95,-7003.35 6998.40,-7007.20"/>
    </edge>
    <edge id=":gneJ146_6" function="internal">
        <lane id=":gneJ146_6_0" index="0" speed="6.51" length="9.03" shape="7001.60,-7007.20 7001.95,-7004.75 7003.00,-7003.00 7004.75,-7001.95 7007.20,-7001.60"/>
    </edge>
    <edge id=":gneJ146_7" function="internal">
        <lane id=":gneJ146_7_0" index="0" speed="13.89" length="14.40" shape="7001.60,-7007.20 7001.60,-6992.80"/>
    </edge>
    <edge id=":gneJ146_8" function="internal">
        <lane id=":gneJ146_8_0" index="0" speed="8.00" length="5.93" shape="7001.60,-7007.20 7001.05,-7003.35 7000.00,-7001.60"/>
    </edge>
    <edge id=":gneJ146_13" function="internal">
        <lane id=":gneJ146_13_0" index="0" speed="8.00" length="8.26" shape="7000.00,-7001.60 6999.40,-7000.60 6996.65,-6998.95 6992.80,-6998.40"/>
    </edge>