<?xml version="1.0" encoding="UTF-8"?>

<!-- generated on 10/08/20 14:36:09 by Eclipse SUMO netedit Version 1.7.0
<configuration xmlns:xsi="http://www.w3.org/2001/XMLSchema-instance" xsi:noNamespaceSchemaLocation="http://sumo.dlr.de/xsd/netconvertConfiguration.xsd">

    <input>
        <sumo-net-file value="C:\Users\Sandrus\Documents\Research\SUMO\SUMO_DEMOS\5SumoTutorial-DrivingInCircles%20-%20Exercise\circles.net.xml"/>
    </input>

    <output>
        <output-file value="C:\Users\Sandrus\Documents\Research\SUMO\SUMO_DEMOS\5SumoTutorial-DrivingInCircles%20-%20Exercise\circles.net.xml"/>
    </output>

    <processing>
        <geometry.min-radius.fix.railways value="false"/>
        <geometry.max-grade.fix value="false"/>
        <offset.disable-normalization value="true"/>
        <lefthand value="false"/>
    </processing>

    <junctions>
        <no-turnarounds value="true"/>
        <junctions.corner-detail value="5"/>
        <junctions.limit-turn-speed value="5.5"/>
        <rectangular-lane-cut value="false"/>
    </junctions>

    <pedestrian>
        <walkingareas value="false"/>
    </pedestrian>

    <netedit>
        <additional-files value="C:\Users\Sandrus\Documents\Research\SUMO\SUMO_DEMOS\5SumoTutorial-DrivingInCircles%20-%20Exercise\circles.add.xml"/>
        <route-files value="C:\Users\Sandrus\Documents\Research\SUMO\SUMO_DEMOS\5SumoTutorial-DrivingInCircles%20-%20Exercise\circles.rou.xml"/>
    </netedit>

    <report>
        <aggregate-warnings value="5"/>
    </report>

</configuration>
-->

<net version="1.6" junctionCornerDetail="5" limitTurnSpeed="5.50" xmlns:xsi="http://www.w3.org/2001/XMLSchema-instance" xsi:noNamespaceSchemaLocation="http://sumo.dlr.de/xsd/net_file.xsd">

    <location netOffset="0.00,0.00" convBoundary="-19.70,-55.11,121.47,97.40" origBoundary="-10000000000.00,-10000000000.00,10000000000.00,10000000000.00" projParameter="!"/>

    <edge id=":gneJ0_0" function="internal">
        <lane id=":gneJ0_0_0" index="0" speed="6.09" length="7.38" shape="-19.65,57.73 -20.37,55.85 -20.34,54.17 -19.56,52.67 -18.04,51.37"/>
    </edge>
    <edge id=":gneJ0_1" function="internal">
        <lane id=":gneJ0_1_0" index="0" speed="3.91" length="2.46" shape="-16.31,54.06 -16.82,54.50 -17.08,55.00 -17.09,55.56 -16.85,56.18"/>
    </edge>
    <edge id=":gneJ1_0" function="internal">
        <lane id=":gneJ1_0_0" index="0" speed="6.55" length="4.00" shape="-0.07,89.98 -1.04,89.65 -1.88,89.15 -2.59,88.48 -3.17,87.63"/>
    </edge>
    <edge id=":gneJ1_1" function="internal">
        <lane id=":gneJ1_1_0" index="0" speed="4.15" length="1.33" shape="-0.36,86.09 -0.17,86.37 0.07,86.59 0.35,86.76 0.67,86.87"/>
    </edge>
    <edge id=":gneJ11_0" function="internal">
        <lane id=":gneJ11_0_0" index="0" speed="7.00" length="3.18" shape="-6.50,-4.12 -7.12,-4.82 -7.48,-5.37 -7.66,-6.00 -7.78,-6.93"/>
    </edge>
    <edge id=":gneJ11_1" function="internal">
        <lane id=":gneJ11_1_0" index="0" speed="4.39" length="1.06" shape="-4.60,-7.25 -4.56,-6.94 -4.50,-6.73 -4.38,-6.55 -4.17,-6.32"/>
    </edge>
    <edge id=":gneJ12_0" function="internal">
        <lane id=":gneJ12_0_0" index="0" speed="6.14" length="6.44" shape="-10.44,-32.98 -10.38,-34.70 -9.84,-36.10 -8.81,-37.20 -7.29,-37.99"/>
    </edge>
    <edge id=":gneJ12_1" function="internal">
        <lane id=":gneJ12_1_0" index="0" speed="3.93" length="2.15" shape="-6.20,-34.98 -6.71,-34.71 -7.05,-34.35 -7.23,-33.88 -7.25,-33.31"/>
    </edge>
    <edge id=":gneJ13_0" function="internal">
        <lane id=":gneJ13_0_0" index="0" speed="13.89" length="0.75" shape="45.50,-53.43 45.28,-53.45 45.13,-53.45 44.97,-53.42 44.76,-53.34"/>
    </edge>
    <edge id=":gneJ13_1" function="internal">
        <lane id=":gneJ13_1_0" index="0" speed="8.05" length="2.26" shape="43.68,-56.36 44.31,-56.57 44.76,-56.67 45.23,-56.68 45.89,-56.60"/>
    </edge>
    <edge id=":gneJ14_0" function="internal">
        <lane id=":gneJ14_0_0" index="0" speed="4.00" length="1.76" shape="104.46,-45.32 104.25,-45.73 103.97,-46.03 103.60,-46.24 103.16,-46.35"/>
    </edge>
    <edge id=":gneJ14_1" function="internal">
        <lane id=":gneJ14_1_0" index="0" speed="6.26" length="5.27" shape="103.55,-49.53 104.88,-49.20 105.97,-48.58 106.84,-47.65 107.46,-46.43"/>
    </edge>
    <edge id=":gneJ15_0" function="internal">
        <lane id=":gneJ15_0_0" index="0" speed="6.20" length="5.71" shape="122.22,-6.66 122.56,-5.20 122.47,-3.85 121.94,-2.60 120.97,-1.46"/>
    </edge>
    <edge id=":gneJ15_1" function="internal">
        <lane id=":gneJ15_1_0" index="0" speed="3.97" length="1.90" shape="118.80,-3.81 119.13,-4.19 119.30,-4.61 119.33,-5.06 119.22,-5.55"/>
    </edge>
    <edge id=":gneJ2_0" function="internal">
        <lane id=":gneJ2_0_0" index="0" speed="13.89" length="1.22" shape="38.54,98.99 38.18,99.00 37.93,98.98 37.69,98.94 37.33,98.86"/>
    </edge>
    <edge id=":gneJ2_1" function="internal">
        <lane id=":gneJ2_1_0" index="0" speed="13.89" length="0.41" shape="38.07,95.75 38.19,95.78 38.27,95.79 38.35,95.79 38.47,95.79"/>
    </edge>
    <edge id=":gneJ3_0" function="internal">
        <lane id=":gneJ3_0_0" index="0" speed="6.48" length="4.23" shape="82.49,96.35 81.74,97.13 80.87,97.69 79.90,98.04 78.82,98.17"/>
    </edge>
    <edge id=":gneJ3_1" function="internal">
        <lane id=":gneJ3_1_0" index="0" speed="4.11" length="1.41" shape="78.76,94.97 79.12,94.93 79.44,94.81 79.73,94.62 79.98,94.36"/>
    </edge>
    <edge id=":gneJ4_0" function="internal">
        <lane id=":gneJ4_0_0" index="0" speed="6.22" length="5.55" shape="102.83,66.03 103.35,67.39 103.44,68.71 103.10,69.99 102.35,71.23"/>
    </edge>
    <edge id=":gneJ4_1" function="internal">
        <lane id=":gneJ4_1_0" index="0" speed="3.98" length="1.85" shape="99.84,69.25 100.09,68.83 100.20,68.41 100.17,67.97 100.00,67.51"/>
    </edge>
    <edge id=":gneJ5_0" function="internal">
        <lane id=":gneJ5_0_0" index="0" speed="7.95" length="7.89" shape="84.04,37.03 82.86,35.20 81.44,33.85 79.81,32.97 77.96,32.56"/>
    </edge>
    <edge id=":gneJ5_1" function="internal">
        <lane id=":gneJ5_1_0" index="0" speed="8.09" length="11.64" shape="84.04,37.03 82.99,34.12 82.94,31.40 83.90,28.85 85.88,26.47"/>
    </edge>
    <edge id=":gneJ5_2" function="internal">
        <lane id=":gneJ5_2_0" index="0" speed="6.58" length="7.41" shape="88.05,28.83 86.79,30.34 86.18,31.96 86.21,33.70 86.88,35.54"/>
    </edge>
    <edge id=":gneJ5_3" function="internal">
        <lane id=":gneJ5_3_0" index="0" speed="10.55" length="11.08" shape="88.05,28.83 85.70,30.64 83.23,31.87 80.65,32.51 77.96,32.56"/>
    </edge>
    <edge id=":gneJ5_4" function="internal">
        <lane id=":gneJ5_4_0" index="0" speed="9.25" length="8.41" shape="78.24,29.37 80.25,29.33 82.20,28.83 84.08,27.88 85.88,26.47"/>
    </edge>
    <edge id=":gneJ5_5" function="internal">
        <lane id=":gneJ5_5_0" index="0" speed="9.33" length="3.97" shape="78.24,29.37 80.91,29.95 82.01,30.52"/>
    </edge>
    <edge id=":gneJ5_6" function="internal">
        <lane id=":gneJ5_6_0" index="0" speed="9.33" length="7.12" shape="82.01,30.52 83.24,31.17 85.23,33.03 86.88,35.54"/>
    </edge>
    <edge id=":gneJ6_0" function="internal">
        <lane id=":gneJ6_0_0" index="0" speed="12.90" length="11.67" shape="29.30,28.24 26.10,28.23 23.60,28.83 21.25,30.02 18.49,31.77"/>
    </edge>
    <edge id=":gneJ6_1" function="internal">
        <lane id=":gneJ6_1_0" index="0" speed="12.91" length="4.60" shape="29.30,28.24 25.86,27.53 24.88,27.05"/>
    </edge>
    <edge id=":gneJ6_6" function="internal">
        <lane id=":gneJ6_6_0" index="0" speed="12.91" length="9.12" shape="24.88,27.05 22.91,26.10 20.25,24.08 17.69,21.57"/>
    </edge>
    <edge id=":gneJ6_2" function="internal">
        <lane id=":gneJ6_2_0" index="0" speed="11.84" length="11.49" shape="20.02,19.37 22.26,21.73 24.22,23.41 26.47,24.49 29.58,25.06"/>
    </edge>
    <edge id=":gneJ6_3" function="internal">
        <lane id=":gneJ6_3_0" index="0" speed="7.71" length="14.95" shape="20.02,19.37 22.44,22.82 22.99,26.04 21.67,29.02 18.49,31.77"/>
    </edge>
    <edge id=":gneJ6_4" function="internal">
        <lane id=":gneJ6_4_0" index="0" speed="6.14" length="9.06" shape="16.76,29.08 18.69,27.41 19.49,25.60 19.15,23.65 17.69,21.57"/>
    </edge>
    <edge id=":gneJ6_5" function="internal">
        <lane id=":gneJ6_5_0" index="0" speed="13.89" length="13.70" shape="16.76,29.08 19.84,27.25 22.88,25.89 26.07,25.12 29.58,25.06"/>
    </edge>

    <edge id="-gneE0" from="gneJ1" to="gneJ0" priority="-1">
        <lane id="-gneE0_0" index="0" speed="13.89" length="34.15" shape="-3.17,87.63 -19.65,57.73"/>
    </edge>
    <edge id="-gneE1" from="gneJ2" to="gneJ1" priority="-1">
        <lane id="-gneE1_0" index="0" speed="13.89" length="38.44" shape="37.33,98.86 -0.07,89.98"/>
    </edge>
    <edge id="-gneE10" from="gneJ12" to="gneJ11" priority="-1">
        <lane id="-gneE10_0" index="0" speed="13.89" length="26.19" shape="-7.25,-33.31 -4.60,-7.25"/>
    </edge>
    <edge id="-gneE11" from="gneJ13" to="gneJ12" priority="-1">
        <lane id="-gneE11_0" index="0" speed="13.89" length="54.18" shape="44.76,-53.34 -6.20,-34.98"/>
    </edge>
    <edge id="-gneE12" from="gneJ14" to="gneJ13" priority="-1">
        <lane id="-gneE12_0" index="0" speed="13.89" length="58.09" shape="103.16,-46.35 45.50,-53.43"/>
    </edge>
    <edge id="-gneE13" from="gneJ15" to="gneJ14" priority="-1">
        <lane id="-gneE13_0" index="0" speed="13.89" length="42.42" shape="119.22,-5.55 104.46,-45.32"/>
    </edge>
    <edge id="-gneE14" from="gneJ5" to="gneJ15" priority="-1">
        <lane id="-gneE14_0" index="0" speed="13.89" length="44.73" shape="85.88,26.47 118.80,-3.81"/>
    </edge>
    <edge id="-gneE2" from="gneJ3" to="gneJ2" priority="-1">
        <lane id="-gneE2_0" index="0" speed="13.89" length="40.29" shape="78.82,98.17 38.54,98.99"/>
    </edge>
    <edge id="-gneE3" from="gneJ4" to="gneJ3" priority="-1">
        <lane id="-gneE3_0" index="0" speed="13.89" length="32.02" shape="102.35,71.23 82.49,96.35"/>
    </edge>
    <edge id="-gneE4" from="gneJ5" to="gneJ4" priority="-1">
        <lane id="-gneE4_0" index="0" speed="13.89" length="34.41" shape="86.88,35.54 102.83,66.03"/>
    </edge>
    <edge id="-gneE5" from="gneJ6" to="gneJ5" priority="-1">
        <lane id="-gneE5_0" index="0" speed="13.89" length="48.85" shape="29.58,25.06 78.24,29.37"/>
    </edge>
    <edge id="-gneE6" from="gneJ0" to="gneJ6" priority="-1">
        <lane id="-gneE6_0" index="0" speed="13.89" length="41.32" shape="-18.04,51.37 16.76,29.08"/>
    </edge>
    <edge id="-gneE9" from="gneJ11" to="gneJ6" priority="-1">
        <lane id="-gneE9_0" index="0" speed="13.89" length="35.29" shape="-4.17,-6.32 20.02,19.37"/>
    </edge>
    <edge id="gneE0" from="gneJ0" to="gneJ1" priority="-1">
        <lane id="gneE0_0" index="0" speed="13.89" length="34.15" shape="-16.85,56.18 -0.36,86.09"/>
    </edge>
    <edge id="gneE1" from="gneJ1" to="gneJ2" priority="-1">
        <lane id="gneE1_0" index="0" speed="13.89" length="38.44" shape="0.67,86.87 38.07,95.75"/>
    </edge>
    <edge id="gneE10" from="gneJ11" to="gneJ12" priority="-1">
        <lane id="gneE10_0" index="0" speed="13.89" length="26.19" shape="-7.78,-6.93 -10.44,-32.98"/>
    </edge>
    <edge id="gneE11" from="gneJ12" to="gneJ13" priority="-1">
        <lane id="gneE11_0" index="0" speed="13.89" length="54.18" shape="-7.29,-37.99 43.68,-56.36"/>
    </edge>
    <edge id="gneE12" from="gneJ13" to="gneJ14" priority="-1">
        <lane id="gneE12_0" index="0" speed="13.89" length="58.09" shape="45.89,-56.60 103.55,-49.53"/>
    </edge>
    <edge id="gneE13" from="gneJ14" to="gneJ15" priority="-1">
        <lane id="gneE13_0" index="0" speed="13.89" length="42.42" shape="107.46,-46.43 122.22,-6.66"/>
    </edge>
    <edge id="gneE14" from="gneJ15" to="gneJ5" priority="-1">
        <lane id="gneE14_0" index="0" speed="13.89" length="44.73" shape="120.97,-1.46 88.05,28.83"/>
    </edge>
    <edge id="gneE2" from="gneJ2" to="gneJ3" priority="-1">
        <lane id="gneE2_0" index="0" speed="13.89" length="40.29" shape="38.47,95.79 78.76,94.97"/>
    </edge>
    <edge id="gneE3" from="gneJ3" to="gneJ4" priority="-1">
        <lane id="gneE3_0" index="0" speed="13.89" length="32.02" shape="79.98,94.36 99.84,69.25"/>
    </edge>
    <edge id="gneE4" from="gneJ4" to="gneJ5" priority="-1">
        <lane id="gneE4_0" index="0" speed="13.89" length="34.41" shape="100.00,67.51 84.04,37.03"/>
    </edge>
    <edge id="gneE5" from="gneJ5" to="gneJ6" priority="-1">
        <lane id="gneE5_0" index="0" speed="13.89" length="48.85" shape="77.96,32.56 29.30,28.24"/>
    </edge>
    <edge id="gneE6" from="gneJ6" to="gneJ0" priority="-1">
        <lane id="gneE6_0" index="0" speed="13.89" length="41.32" shape="18.49,31.77 -16.31,54.06"/>
    </edge>
    <edge id="gneE9" from="gneJ6" to="gneJ11" priority="-1">
        <lane id="gneE9_0" index="0" speed="13.89" length="35.29" shape="17.69,21.57 -6.50,-4.12"/>
    </edge>

    <junction id="gneJ0" type="priority" x="-19.70" y="54.33" incLanes="-gneE0_0 gneE6_0" intLanes=":gneJ0_0_0 :gneJ0_1_0" shape="-21.06,58.50 -15.45,55.41 -18.90,50.02 -21.38,52.40 -21.96,53.76 -22.10,55.22 -21.80,56.81">
        <request index="0" response="00" foes="00" cont="0"/>
        <request index="1" response="00" foes="00" cont="0"/>
    </junction>
    <junction id="gneJ1" type="priority" x="-1.08" y="88.10" incLanes="-gneE1_0 gneE0_0" intLanes=":gneJ1_0_0 :gneJ1_1_0" shape="-0.44,91.54 1.04,85.31 -4.57,88.40 -3.50,89.86 -2.85,90.43 -2.12,90.90 -1.32,91.27">
        <request index="0" response="00" foes="00" cont="0"/>
        <request index="1" response="00" foes="00" cont="0"/>
    </junction>
    <junction id="gneJ11" type="priority" x="-6.08" y="-6.01" incLanes="gneE9_0 -gneE10_0" intLanes=":gneJ11_0_0 :gneJ11_1_0" shape="-7.67,-3.03 -3.01,-7.41 -9.37,-6.77 -9.15,-5.22 -8.97,-4.69 -8.69,-4.21 -8.27,-3.68">
        <request index="0" response="00" foes="00" cont="0"/>
        <request index="1" response="00" foes="00" cont="0"/>
    </junction>
    <junction id="gneJ12" type="priority" x="-9.10" y="-35.63" incLanes="gneE10_0 -gneE11_0" intLanes=":gneJ12_0_0 :gneJ12_1_0" shape="-12.03,-32.82 -5.66,-33.47 -7.83,-39.49 -10.39,-38.00 -11.23,-36.98 -11.79,-35.77 -12.05,-34.39">
        <request index="0" response="00" foes="00" cont="0"/>
        <request index="1" response="00" foes="00" cont="0"/>
    </junction>
    <junction id="gneJ13" type="priority" x="44.94" y="-55.11" incLanes="-gneE12_0 gneE11_0" intLanes=":gneJ13_0_0 :gneJ13_1_0" shape="45.31,-51.84 46.09,-58.19 44.98,-58.30 44.58,-58.28 44.19,-58.21 43.74,-58.07 43.14,-57.86">
        <request index="0" response="00" foes="00" cont="0"/>
        <request index="1" response="00" foes="00" cont="0"/>
    </junction>
    <junction id="gneJ14" type="priority" x="105.28" y="-47.70" incLanes="-gneE13_0 gneE12_0" intLanes=":gneJ14_0_0 :gneJ14_1_0" shape="102.96,-44.76 108.96,-46.99 107.78,-49.07 106.98,-49.85 106.04,-50.45 104.96,-50.87 103.74,-51.12">
        <request index="0" response="00" foes="00" cont="0"/>
        <request index="1" response="00" foes="00" cont="0"/>
    </junction>
    <junction id="gneJ15" type="priority" x="121.47" y="-4.09" incLanes="gneE13_0 -gneE14_0" intLanes=":gneJ15_0_0 :gneJ15_1_0" shape="123.72,-7.22 117.72,-4.99 122.05,-0.28 123.64,-2.34 124.05,-3.47 124.20,-4.66 124.09,-5.91">
        <request index="0" response="00" foes="00" cont="0"/>
        <request index="1" response="00" foes="00" cont="0"/>
    </junction>
    <junction id="gneJ2" type="priority" x="38.10" y="97.40" incLanes="-gneE2_0 gneE1_0" intLanes=":gneJ2_0_0 :gneJ2_1_0" shape="38.57,100.59 38.44,94.19 36.96,100.42 37.55,100.55 37.76,100.58 37.97,100.60 38.23,100.60">
        <request index="0" response="00" foes="00" cont="0"/>
        <request index="1" response="00" foes="00" cont="0"/>
    </junction>
    <junction id="gneJ3" type="priority" x="80.30" y="96.54" incLanes="-gneE3_0 gneE2_0" intLanes=":gneJ3_0_0 :gneJ3_1_0" shape="83.75,97.34 78.73,93.37 78.86,99.77 80.74,99.47 81.59,99.13 82.37,98.66 83.09,98.07">
        <request index="0" response="00" foes="00" cont="0"/>
        <request index="1" response="00" foes="00" cont="0"/>
    </junction>
    <junction id="gneJ4" type="priority" x="102.38" y="68.61" incLanes="-gneE4_0 gneE3_0" intLanes=":gneJ4_0_0 :gneJ4_1_0" shape="104.25,65.29 98.58,68.25 103.60,72.22 104.82,70.00 105.05,68.86 105.04,67.69 104.77,66.50">
        <request index="0" response="00" foes="00" cont="0"/>
        <request index="1" response="00" foes="00" cont="0"/>
    </junction>
    <junction id="gneJ5" type="priority" x="82.90" y="31.39" incLanes="gneE4_0 gneE14_0 -gneE5_0" intLanes=":gneJ5_0_0 :gneJ5_1_0 :gneJ5_2_0 :gneJ5_3_0 :gneJ5_4_0 :gneJ5_6_0" shape="82.63,37.77 88.30,34.80 87.76,33.06 87.79,32.24 88.04,31.46 88.48,30.71 89.13,30.00 84.80,25.29 82.74,26.81 81.68,27.31 80.60,27.63 79.50,27.79 78.38,27.78 77.82,34.15 79.71,34.67 80.55,35.19 81.31,35.88 82.01,36.74">
        <request index="0" response="001000" foes="001000" cont="0"/>
        <request index="1" response="111000" foes="111000" cont="0"/>
        <request index="2" response="000000" foes="100000" cont="0"/>
        <request index="3" response="000000" foes="100011" cont="0"/>
        <request index="4" response="000000" foes="000010" cont="0"/>
        <request index="5" response="001100" foes="001110" cont="1"/>
    </junction>
    <junction id="gneJ6" type="priority" x="24.24" y="26.19" incLanes="gneE5_0 -gneE9_0 -gneE6_0" intLanes=":gneJ6_0_0 :gneJ6_6_0 :gneJ6_2_0 :gneJ6_3_0 :gneJ6_4_0 :gneJ6_5_0" shape="29.15,29.84 29.72,23.46 27.60,23.18 26.06,22.73 24.87,22.07 23.81,21.14 22.66,19.89 21.18,18.28 16.52,22.66 17.67,24.52 17.74,25.39 17.46,26.21 16.85,26.99 15.90,27.73 19.35,33.12 21.23,31.88 22.68,30.93 23.95,30.26 25.29,29.87 26.94,29.73">
        <request index="0" response="000000" foes="001000" cont="0"/>
        <request index="1" response="110000" foes="111000" cont="1"/>
        <request index="2" response="100000" foes="100000" cont="0"/>
        <request index="3" response="100011" foes="100011" cont="0"/>
        <request index="4" response="000000" foes="000010" cont="0"/>
        <request index="5" response="000000" foes="001110" cont="0"/>
    </junction>

    <junction id=":gneJ5_6_0" type="internal" x="82.01" y="30.52" incLanes=":gneJ5_5_0 gneE14_0" intLanes=":gneJ5_1_0 :gneJ5_2_0 :gneJ5_3_0"/>
    <junction id=":gneJ6_6_0" type="internal" x="24.88" y="27.05" incLanes=":gneJ6_1_0 -gneE6_0" intLanes=":gneJ6_3_0 :gneJ6_4_0 :gneJ6_5_0"/>

    <connection from="-gneE0" to="-gneE6" fromLane="0" toLane="0" via=":gneJ0_0_0" dir="l" state="M"/>
    <connection from="-gneE1" to="-gneE0" fromLane="0" toLane="0" via=":gneJ1_0_0" dir="l" state="M"/>
    <connection from="-gneE10" to="-gneE9" fromLane="0" toLane="0" via=":gneJ11_1_0" dir="s" state="M"/>
    <connection from="-gneE11" to="-gneE10" fromLane="0" toLane="0" via=":gneJ12_1_0" dir="r" state="M"/>
    <connection from="-gneE12" to="-gneE11" fromLane="0" toLane="0" via=":gneJ13_0_0" dir="s" state="M"/>
    <connection from="-gneE13" to="-gneE12" fromLane="0" toLane="0" via=":gneJ14_0_0" dir="r" state="M"/>
    <connection from="-gneE14" to="-gneE13" fromLane="0" toLane="0" via=":gneJ15_1_0" dir="r" state="M"/>
    <connection from="-gneE2" to="-gneE1" fromLane="0" toLane="0" via=":gneJ2_0_0" dir="s" state="M"/>
    <connection from="-gneE3" to="-gneE2" fromLane="0" toLane="0" via=":gneJ3_0_0" dir="l" state="M"/>
    <connection from="-gneE4" to="-gneE3" fromLane="0" toLane="0" via=":gneJ4_0_0" dir="l" state="M"/>
    <connection from="-gneE5" to="-gneE14" fromLane="0" toLane="0" via=":gneJ5_4_0" dir="r" state="M"/>
    <connection from="-gneE5" to="-gneE4" fromLane="0" toLane="0" via=":gneJ5_5_0" dir="l" state="m"/>
    <connection from="-gneE6" to="gneE9" fromLane="0" toLane="0" via=":gneJ6_4_0" dir="r" state="M"/>
    <connection from="-gneE6" to="-gneE5" fromLane="0" toLane="0" via=":gneJ6_5_0" dir="s" state="M"/>
    <connection from="-gneE9" to="-gneE5" fromLane="0" toLane="0" via=":gneJ6_2_0" dir="s" state="m"/>
    <connection from="-gneE9" to="gneE6" fromLane="0" toLane="0" via=":gneJ6_3_0" dir="l" state="m"/>
    <connection from="gneE0" to="gneE1" fromLane="0" toLane="0" via=":gneJ1_1_0" dir="r" state="M"/>
    <connection from="gneE1" to="gneE2" fromLane="0" toLane="0" via=":gneJ2_1_0" dir="s" state="M"/>
    <connection from="gneE10" to="gneE11" fromLane="0" toLane="0" via=":gneJ12_0_0" dir="l" state="M"/>
    <connection from="gneE11" to="gneE12" fromLane="0" toLane="0" via=":gneJ13_1_0" dir="s" state="M"/>
    <connection from="gneE12" to="gneE13" fromLane="0" toLane="0" via=":gneJ14_1_0" dir="l" state="M"/>
    <connection from="gneE13" to="gneE14" fromLane="0" toLane="0" via=":gneJ15_0_0" dir="l" state="M"/>
    <connection from="gneE14" to="-gneE4" fromLane="0" toLane="0" via=":gneJ5_2_0" dir="r" state="M"/>
    <connection from="gneE14" to="gneE5" fromLane="0" toLane="0" via=":gneJ5_3_0" dir="l" state="M"/>
    <connection from="gneE2" to="gneE3" fromLane="0" toLane="0" via=":gneJ3_1_0" dir="r" state="M"/>
    <connection from="gneE3" to="gneE4" fromLane="0" toLane="0" via=":gneJ4_1_0" dir="r" state="M"/>
    <connection from="gneE4" to="gneE5" fromLane="0" toLane="0" via=":gneJ5_0_0" dir="r" state="m"/>
    <connection from="gneE4" to="-gneE14" fromLane="0" toLane="0" via=":gneJ5_1_0" dir="l" state="m"/>
    <connection from="gneE5" to="gneE6" fromLane="0" toLane="0" via=":gneJ6_0_0" dir="s" state="M"/>
    <connection from="gneE5" to="gneE9" fromLane="0" toLane="0" via=":gneJ6_1_0" dir="L" state="m"/>
    <connection from="gneE6" to="gneE0" fromLane="0" toLane="0" via=":gneJ0_1_0" dir="r" state="M"/>
    <connection from="gneE9" to="gneE10" fromLane="0" toLane="0" via=":gneJ11_0_0" dir="s" state="M"/>

    <connection from=":gneJ0_0" to="-gneE6" fromLane="0" toLane="0" dir="l" state="M"/>
    <connection from=":gneJ0_1" to="gneE0" fromLane="0" toLane="0" dir="r" state="M"/>
    <connection from=":gneJ1_0" to="-gneE0" fromLane="0" toLane="0" dir="l" state="M"/>
    <connection from=":gneJ1_1" to="gneE1" fromLane="0" toLane="0" dir="r" state="M"/>
    <connection from=":gneJ11_0" to="gneE10" fromLane="0" toLane="0" dir="s" state="M"/>
    <connection from=":gneJ11_1" to="-gneE9" fromLane="0" toLane="0" dir="s" state="M"/>
    <connection from=":gneJ12_0" to="gneE11" fromLane="0" toLane="0" dir="l" state="M"/>
    <connection from=":gneJ12_1" to="-gneE10" fromLane="0" toLane="0" dir="r" state="M"/>
    <connection from=":gneJ13_0" to="-gneE11" fromLane="0" toLane="0" dir="s" state="M"/>
    <connection from=":gneJ13_1" to="gneE12" fromLane="0" toLane="0" dir="s" state="M"/>
    <connection from=":gneJ14_0" to="-gneE12" fromLane="0" toLane="0" dir="r" state="M"/>
    <connection from=":gneJ14_1" to="gneE13" fromLane="0" toLane="0" dir="l" state="M"/>
    <connection from=":gneJ15_0" to="gneE14" fromLane="0" toLane="0" dir="l" state="M"/>
    <connection from=":gneJ15_1" to="-gneE13" fromLane="0" toLane="0" dir="r" state="M"/>
    <connection from=":gneJ2_0" to="-gneE1" fromLane="0" toLane="0" dir="s" state="M"/>
    <connection from=":gneJ2_1" to="gneE2" fromLane="0" toLane="0" dir="s" state="M"/>
    <connection from=":gneJ3_0" to="-gneE2" fromLane="0" toLane="0" dir="l" state="M"/>
    <connection from=":gneJ3_1" to="gneE3" fromLane="0" toLane="0" dir="r" state="M"/>
    <connection from=":gneJ4_0" to="-gneE3" fromLane="0" toLane="0" dir="l" state="M"/>
    <connection from=":gneJ4_1" to="gneE4" fromLane="0" toLane="0" dir="r" state="M"/>
    <connection from=":gneJ5_0" to="gneE5" fromLane="0" toLane="0" dir="r" state="M"/>
    <connection from=":gneJ5_1" to="-gneE14" fromLane="0" toLane="0" dir="l" state="M"/>
    <connection from=":gneJ5_2" to="-gneE4" fromLane="0" toLane="0" dir="r" state="M"/>
    <connection from=":gneJ5_3" to="gneE5" fromLane="0" toLane="0" dir="l" state="M"/>
    <connection from=":gneJ5_4" to="-gneE14" fromLane="0" toLane="0" dir="r" state="M"/>
    <connection from=":gneJ5_5" to="-gneE4" fromLane="0" toLane="0" via=":gneJ5_6_0" dir="l" state="m"/>
    <connection from=":gneJ5_6" to="-gneE4" fromLane="0" toLane="0" dir="l" state="M"/>
    <connection from=":gneJ6_0" to="gneE6" fromLane="0" toLane="0" dir="s" state="M"/>
    <connection from=":gneJ6_1" to="gneE9" fromLane="0" toLane="0" via=":gneJ6_6_0" dir="L" state="m"/>
    <connection from=":gneJ6_6" to="gneE9" fromLane="0" toLane="0" dir="L" state="M"/>
    <connection from=":gneJ6_2" to="-gneE5" fromLane="0" toLane="0" dir="s" state="M"/>
    <connection from=":gneJ6_3" to="gneE6" fromLane="0" toLane="0" dir="l" state="M"/>
    <connection from=":gneJ6_4" to="gneE9" fromLane="0" toLane="0" dir="r" state="M"/>
    <connection from=":gneJ6_5" to="-gneE5" fromLane="0" toLane="0" dir="s" state="M"/>

</net>
