<?xml version="1.0" encoding="UTF-8"?>

<!-- generated on 10/08/20 15:55:26 by Eclipse SUMO netedit Version 1.7.0
<configuration xmlns:xsi="http://www.w3.org/2001/XMLSchema-instance" xsi:noNamespaceSchemaLocation="http://sumo.dlr.de/xsd/netconvertConfiguration.xsd">

    <input>
        <sumo-net-file value="C:\Users\Sandrus\Documents\Research\SUMO\SUMO_DEMOS\5SumoTutorial-DrivingInCircles%20-%20Exercise\circles.net.xml"/>
    </input>

    <output>
        <output-file value="C:\Users\Sandrus\Documents\Research\SUMO\SUMO_DEMOS\5SumoTutorial-DrivingInCircles%20-%20Exercise\circles.net.xml"/>
    </output>

    <processing>
        <geometry.min-radius.fix.railways value="false"/>
        <geometry.max-grade.fix value="false"/>
        <offset.disable-normalization value="true"/>
        <lefthand value="false"/>
    </processing>

    <junctions>
        <no-turnarounds value="true"/>
        <junctions.corner-detail value="5"/>
        <junctions.limit-turn-speed value="5.5"/>
        <rectangular-lane-cut value="false"/>
    </junctions>

    <pedestrian>
        <walkingareas value="false"/>
    </pedestrian>

    <netedit>
        <additional-files value="C:\Users\Sandrus\Documents\Research\SUMO\SUMO_DEMOS\5SumoTutorial-DrivingInCircles%20-%20Exercise\circles.add.xml"/>
        <route-files value="C:\Users\Sandrus\Documents\Research\SUMO\SUMO_DEMOS\5SumoTutorial-DrivingInCircles%20-%20Exercise\circles.rou.xml"/>
    </netedit>

    <report>
        <aggregate-warnings value="5"/>
    </report>

</configuration>
-->

<routes xmlns:xsi="http://www.w3.org/2001/XMLSchema-instance" xsi:noNamespaceSchemaLocation="http://sumo.dlr.de/xsd/routes_file.xsd">
    <vType id="car" accel="3.5" decel="2.2" sigma="1.0"/>
    <flow id="carflow" type="car" begin="0.00" from="gneE0" to="gneE6" via="gneE1 gneE2 gneE3 gneE4 gneE5" end="0.00" number="5"/>
    <flow id="carflow2" type="car" begin="0.00" from="-gneE6" to="-gneE0" via="-gneE5 -gneE4 -gneE3 -gneE2 -gneE1" end="0.00" number="10"/>
    <flow id="flow3" type="car" begin="0.00" departSpeed="10.00" color="249,0,255" from="-gneE6" to="gneE6" via="gneE9 gneE10 gneE11 gneE12 gneE13 gneE14 gneE5 gneE6 gneE0 gneE1 gneE2 gneE3 gneE4 gneE5" end="0.00" number="10"/>
</routes>
