<?xml version="1.0" encoding="UTF-8"?>

<!-- generated on 10/02/20 17:16:37 by Eclipse SUMO netconvert Version 1.7.0
<configuration xmlns:xsi="http://www.w3.org/2001/XMLSchema-instance" xsi:noNamespaceSchemaLocation="http://sumo.dlr.de/xsd/netconvertConfiguration.xsd">

    <input>
        <osm-files value="madridCenter.osm"/>
    </input>

    <output>
        <output-file value="madridCenter.net.xml"/>
    </output>

    <projection>
        <proj.utm value="true"/>
    </projection>

    <report>
        <aggregate-warnings value="5"/>
    </report>

</configuration>
-->

<net version="1.6" junctionCornerDetail="5" limitTurnSpeed="5.50" xmlns:xsi="http://www.w3.org/2001/XMLSchema-instance" xsi:noNamespaceSchemaLocation="http://sumo.dlr.de/xsd/net_file.xsd">

    <location netOffset="-438904.33,-4467803.39" convBoundary="0.00,0.00,10949.47,10557.09" origBoundary="-3.720179,40.359289,-3.590574,40.453770" projParameter="+proj=utm +zone=30 +ellps=WGS84 +datum=WGS84 +units=m +no_defs"/>

    <type id="highway.bridleway" priority="1" numLanes="1" speed="2.78" allow="pedestrian" oneway="1" width="2.00"/>
    <type id="highway.bus_guideway" priority="1" numLanes="1" speed="27.78" allow="bus" oneway="1"/>
    <type id="highway.cycleway" priority="1" numLanes="1" speed="8.33" allow="bicycle" oneway="0" width="1.00"/>
    <type id="highway.footway" priority="1" numLanes="1" speed="2.78" allow="pedestrian" oneway="1" width="2.00"/>
    <type id="highway.ford" priority="1" numLanes="1" speed="2.78" allow="army" oneway="0"/>
    <type id="highway.living_street" priority="2" numLanes="1" speed="2.78" disallow="tram rail_urban rail rail_electric rail_fast ship" oneway="0"/>
    <type id="highway.motorway" priority="14" numLanes="2" speed="39.44" allow="private emergency authority army vip passenger hov taxi bus coach delivery truck trailer motorcycle evehicle custom1 custom2" oneway="1"/>
    <type id="highway.motorway_link" priority="9" numLanes="1" speed="22.22" allow="private emergency authority army vip passenger hov taxi bus coach delivery truck trailer motorcycle evehicle custom1 custom2" oneway="1"/>
    <type id="highway.path" priority="1" numLanes="1" speed="2.78" allow="pedestrian bicycle" oneway="1" width="2.00"/>
    <type id="highway.pedestrian" priority="1" numLanes="1" speed="2.78" allow="pedestrian" oneway="1" width="2.00"/>
    <type id="highway.primary" priority="12" numLanes="2" speed="27.78" disallow="tram rail_urban rail rail_electric rail_fast ship" oneway="0"/>
    <type id="highway.primary_link" priority="7" numLanes="1" speed="22.22" disallow="tram rail_urban rail rail_electric rail_fast ship" oneway="0"/>
    <type id="highway.raceway" priority="15" numLanes="2" speed="83.33" allow="vip" oneway="0"/>
    <type id="highway.residential" priority="3" numLanes="1" speed="13.89" disallow="tram rail_urban rail rail_electric rail_fast ship" oneway="0"/>
    <type id="highway.secondary" priority="11" numLanes="1" speed="27.78" disallow="tram rail_urban rail rail_electric rail_fast ship" oneway="0"/>
    <type id="highway.secondary_link" priority="6" numLanes="1" speed="22.22" disallow="tram rail_urban rail rail_electric rail_fast ship" oneway="0"/>
    <type id="highway.service" priority="1" numLanes="1" speed="5.56" allow="pedestrian delivery bicycle" oneway="0"/>
    <type id="highway.stairs" priority="1" numLanes="1" speed="1.39" allow="pedestrian" oneway="1" width="2.00"/>
    <type id="highway.step" priority="1" numLanes="1" speed="1.39" allow="pedestrian" oneway="1" width="2.00"/>
    <type id="highway.steps" priority="1" numLanes="1" speed="1.39" allow="pedestrian" oneway="1" width="2.00"/>
    <type id="highway.tertiary" priority="10" numLanes="1" speed="22.22" disallow="tram rail_urban rail rail_electric rail_fast ship" oneway="0"/>
    <type id="highway.tertiary_link" priority="5" numLanes="1" speed="22.22" disallow="tram rail_urban rail rail_electric rail_fast ship" oneway="0"/>
    <type id="highway.track" priority="1" numLanes="1" speed="5.56" allow="pedestrian motorcycle moped bicycle" oneway="0"/>
    <type id="highway.trunk" priority="13" numLanes="2" speed="27.78" disallow="pedestrian bicycle tram rail_urban rail rail_electric rail_fast ship" oneway="0"/>
    <type id="highway.trunk_link" priority="8" numLanes="1" speed="22.22" disallow="pedestrian bicycle tram rail_urban rail rail_electric rail_fast ship" oneway="0"/>
    <type id="highway.unclassified" priority="4" numLanes="1" speed="13.89" disallow="tram rail_urban rail rail_electric rail_fast ship" oneway="0"/>
    <type id="highway.unsurfaced" priority="1" numLanes="1" speed="8.33" disallow="tram rail_urban rail rail_electric rail_fast ship" oneway="0"/>
    <type id="railway.highspeed" priority="21" numLanes="1" speed="69.44" allow="rail_fast" oneway="1"/>
    <type id="railway.light_rail" priority="19" numLanes="1" speed="27.78" allow="rail_urban" oneway="1"/>
    <type id="railway.preserved" priority="16" numLanes="1" speed="27.78" allow="rail" oneway="1"/>
    <type id="railway.rail" priority="20" numLanes="1" speed="44.44" allow="rail" oneway="1"/>
    <type id="railway.subway" priority="18" numLanes="1" speed="27.78" allow="rail_urban" oneway="1"/>
    <type id="railway.tram" priority="17" numLanes="1" speed="13.89" allow="tram" oneway="1"/>

    <edge id=":1011021808_0" function="internal">
        <lane id=":1011021808_0_0" index="0" disallow="tram rail_urban rail rail_electric rail_fast ship" speed="5.56" length="5.54" shape="993.06,6022.20 993.38,6023.80 993.71,6024.89 994.24,6025.89 995.16,6027.24"/>
    </edge>
    <edge id=":1011021808_1" function="internal">
        <lane id=":1011021808_1_0" index="0" disallow="tram rail_urban rail rail_electric rail_fast ship" speed="5.26" length="4.80" shape="993.06,6022.20 993.12,6023.48 992.79,6024.55 992.06,6025.38 990.93,6026.00"/>
    </edge>
    <edge id=":1011021815_0" function="internal">
        <lane id=":1011021815_0_0" index="0" disallow="tram rail_urban rail rail_electric rail_fast ship" speed="5.56" length="4.96" shape="1000.29,6033.62 1001.30,6034.68 1001.97,6035.44 1002.59,6036.23 1003.50,6037.39"/>
    </edge>
    <edge id=":1074577429_0" function="internal">
        <lane id=":1074577429_0_0" index="0" disallow="tram rail_urban rail rail_electric rail_fast ship" speed="13.89" length="2.35" shape="2252.69,6720.20 2253.77,6721.90"/>
        <lane id=":1074577429_0_1" index="1" disallow="tram rail_urban rail rail_electric rail_fast ship" speed="13.89" length="2.35" shape="2255.29,6718.32 2256.46,6720.17"/>
        <lane id=":1074577429_0_2" index="2" disallow="tram rail_urban rail rail_electric rail_fast ship" speed="13.89" length="2.35" shape="2257.88,6716.45 2259.15,6718.43"/>
        <lane id=":1074577429_0_3" index="3" disallow="tram rail_urban rail rail_electric rail_fast ship" speed="13.89" length="2.35" shape="2260.47,6714.57 2261.83,6716.69"/>
        <lane id=":1074577429_0_4" index="4" disallow="tram rail_urban rail rail_electric rail_fast ship" speed="13.89" length="2.35" shape="2263.06,6712.70 2264.52,6714.95"/>
    </edge>
    <edge id=":1074577438_0" function="internal">
        <lane id=":1074577438_0_0" index="0" disallow="tram rail_urban rail rail_electric rail_fast ship" speed="13.89" length="1.72" shape="2300.88,6694.10 2301.81,6694.17 2302.45,6694.25 2303.07,6694.38 2303.98,6694.60"/>
        <lane id=":1074577438_0_1" index="1" disallow="tram rail_urban rail rail_electric rail_fast ship" speed="13.89" length="1.72" shape="2300.66,6697.30 2301.42,6697.35 2301.94,6697.41 2302.45,6697.52 2303.19,6697.70"/>
        <lane id=":1074577438_0_2" index="2" disallow="tram rail_urban rail rail_electric rail_fast ship" speed="13.89" length="1.72" shape="2300.43,6700.49 2301.03,6700.53 2301.43,6700.58 2301.83,6700.66 2302.41,6700.80"/>
        <lane id=":1074577438_0_3" index="3" disallow="tram rail_urban rail rail_electric rail_fast ship" speed="13.89" length="1.72" shape="2300.21,6703.68 2300.63,6703.71 2300.92,6703.75 2301.21,6703.80 2301.62,6703.91"/>
        <lane id=":1074577438_0_4" index="4" disallow="tram rail_urban rail rail_electric rail_fast ship" speed="13.89" length="1.72" shape="2299.99,6706.87 2300.24,6706.89 2300.41,6706.91 2300.59,6706.95 2300.83,6707.01"/>
        <lane id=":1074577438_0_5" index="5" disallow="tram rail_urban rail rail_electric rail_fast ship" speed="13.89" length="1.72" shape="2299.76,6710.06 2299.85,6710.07 2299.91,6710.08 2299.96,6710.09 2300.05,6710.11"/>
    </edge>
    <edge id=":1074577441_0" function="internal">
        <lane id=":1074577441_0_0" index="0" disallow="tram rail_urban rail rail_electric rail_fast ship" speed="13.89" length="25.63" shape="2253.67,6721.74 2250.00,6714.74 2248.19,6709.13 2246.48,6704.07 2243.14,6698.70"/>
        <lane id=":1074577441_0_1" index="1" disallow="tram rail_urban rail rail_electric rail_fast ship" speed="13.89" length="25.63" shape="2256.35,6720.00 2252.62,6712.90 2250.74,6707.20 2248.98,6702.07 2245.62,6696.67"/>
    </edge>
    <edge id=":1074577441_2" function="internal">
        <lane id=":1074577441_2_0" index="0" disallow="tram rail_urban rail rail_electric rail_fast ship" speed="9.05" length="25.43" shape="2259.04,6718.26 2255.73,6711.30 2255.96,6706.13 2259.73,6702.75 2267.04,6701.15"/>
    </edge>
    <edge id=":1074577441_3" function="internal">
        <lane id=":1074577441_3_0" index="0" disallow="tram rail_urban rail rail_electric rail_fast ship" speed="7.74" length="18.25" shape="2261.72,6716.52 2259.38,6711.56 2259.58,6707.88 2262.32,6705.46 2267.61,6704.31"/>
    </edge>
    <edge id=":1074577441_4" function="internal">
        <lane id=":1074577441_4_0" index="0" disallow="tram rail_urban rail rail_electric rail_fast ship" speed="6.17" length="11.06" shape="2264.41,6714.78 2263.03,6711.82 2263.19,6709.62 2264.91,6708.17 2268.18,6707.48"/>
    </edge>
    <edge id=":1074577441_5" function="internal">
        <lane id=":1074577441_5_0" index="0" disallow="tram rail_urban rail rail_electric rail_fast ship" speed="5.28" length="7.71" shape="2264.41,6714.78 2263.80,6713.17 2264.32,6711.94 2265.97,6711.10 2268.74,6710.65"/>
    </edge>
    <edge id=":1074577441_6" function="internal">
        <lane id=":1074577441_6_0" index="0" disallow="tram rail_urban rail rail_electric rail_fast ship" speed="3.86" length="3.73" shape="2242.34,6701.12 2243.41,6700.94 2243.89,6700.47 2243.80,6699.73 2243.14,6698.70"/>
    </edge>
    <edge id=":1074577441_7" function="internal">
        <lane id=":1074577441_7_0" index="0" disallow="tram rail_urban rail rail_electric rail_fast ship" speed="13.89" length="25.35" shape="2242.34,6701.12 2249.48,6700.28 2254.20,6698.64 2258.88,6696.67 2265.92,6694.84"/>
        <lane id=":1074577441_7_1" index="1" disallow="tram rail_urban rail rail_electric rail_fast ship" speed="13.89" length="25.35" shape="2242.44,6704.32 2249.70,6703.30 2254.47,6701.37 2259.24,6699.34 2266.48,6697.99"/>
        <lane id=":1074577441_7_2" index="2" disallow="tram rail_urban rail rail_electric rail_fast ship" speed="13.89" length="25.35" shape="2242.54,6707.52 2249.93,6706.50 2254.81,6704.55 2259.67,6702.50 2267.04,6701.15"/>
        <lane id=":1074577441_7_3" index="3" disallow="tram rail_urban rail rail_electric rail_fast ship" speed="13.89" length="25.35" shape="2242.64,6710.72 2250.17,6709.69 2255.14,6707.74 2260.10,6705.68 2267.61,6704.31"/>
        <lane id=":1074577441_7_4" index="4" disallow="tram rail_urban rail rail_electric rail_fast ship" speed="13.89" length="25.35" shape="2242.64,6710.72 2250.26,6710.18 2255.42,6709.32 2260.58,6708.35 2268.18,6707.48"/>
    </edge>
    <edge id=":1131010230_0" function="internal">
        <lane id=":1131010230_0_0" index="0" allow="pedestrian delivery bicycle" speed="5.56" length="0.30" shape="2274.17,6676.38 2273.88,6676.45"/>
    </edge>
    <edge id=":1152699006_0" function="internal">
        <lane id=":1152699006_0_0" index="0" allow="rail rail_electric rail_fast" speed="44.44" length="0.22" shape="1577.60,6711.74 1577.57,6711.68 1577.55,6711.64 1577.53,6711.60 1577.51,6711.54"/>
    </edge>
    <edge id=":1179022053_0" function="internal">
        <lane id=":1179022053_0_0" index="0" disallow="tram rail_urban rail rail_electric rail_fast ship" speed="8.33" length="0.29" shape="572.36,6268.78 572.28,6268.77 572.22,6268.76 572.16,6268.76 572.08,6268.76"/>
    </edge>
    <edge id=":1179022053_1" function="internal">
        <lane id=":1179022053_1_0" index="0" disallow="tram rail_urban rail rail_electric rail_fast ship" speed="8.33" length="0.86" shape="572.01,6265.56 572.26,6265.56 572.44,6265.56 572.61,6265.58 572.86,6265.62"/>
    </edge>
    <edge id=":1179022124_0" function="internal">
        <lane id=":1179022124_0_0" index="0" allow="pedestrian delivery bicycle" speed="3.66" length="4.71" shape="701.69,6496.64 702.85,6497.51 703.20,6498.34 702.75,6499.12 701.50,6499.86"/>
    </edge>
    <edge id=":1179022567_0" function="internal">
        <lane id=":1179022567_0_0" index="0" disallow="tram rail_urban rail rail_electric rail_fast ship" speed="8.33" length="0.10" shape="294.18,6143.07 294.18,6143.07"/>
    </edge>
    <edge id=":1179022567_1" function="internal">
        <lane id=":1179022567_1_0" index="0" disallow="tram rail_urban rail rail_electric rail_fast ship" speed="8.33" length="0.10" shape="294.15,6139.87 294.15,6139.87"/>
    </edge>
    <edge id=":1187929637_0" function="internal">
        <lane id=":1187929637_0_0" index="0" allow="pedestrian delivery bicycle" speed="5.56" length="6.55" shape="1396.98,6200.62 1395.84,6200.34 1394.18,6199.29 1392.54,6198.05 1391.47,6197.20"/>
    </edge>
    <edge id=":1187929637_1" function="internal">
        <lane id=":1187929637_1_0" index="0" allow="pedestrian delivery bicycle" speed="3.65" length="4.67" shape="1396.98,6200.62 1395.55,6200.38 1394.86,6199.82 1394.90,6198.92 1395.66,6197.70"/>
    </edge>
    <edge id=":1187929701_0" function="internal">
        <lane id=":1187929701_0_0" index="0" disallow="tram rail_urban rail rail_electric rail_fast ship" speed="13.89" length="10.60" shape="1407.15,6161.38 1409.49,6163.36 1411.14,6164.87 1412.72,6166.46 1414.85,6168.66"/>
    </edge>
    <edge id=":1187929701_1" function="internal">
        <lane id=":1187929701_1_0" index="0" allow="pedestrian delivery bicycle" speed="8.20" length="9.65" shape="1407.15,6161.38 1409.13,6163.36 1410.39,6165.42 1410.93,6167.57 1410.75,6169.79"/>
    </edge>
    <edge id=":1187929701_2" function="internal">
        <lane id=":1187929701_2_0" index="0" allow="pedestrian delivery bicycle" speed="5.78" length="9.93" shape="1407.64,6169.06 1408.64,6166.67 1410.18,6165.81 1412.25,6166.47 1414.85,6168.66"/>
    </edge>
    <edge id=":1187929701_3" function="internal">
        <lane id=":1187929701_3_0" index="0" allow="pedestrian delivery bicycle" speed="3.65" length="4.67" shape="1407.64,6169.06 1408.69,6168.08 1409.56,6167.87 1410.25,6168.44 1410.75,6169.79"/>
    </edge>
    <edge id=":1187929739_0" function="internal">
        <lane id=":1187929739_0_0" index="0" disallow="tram rail_urban rail rail_electric rail_fast ship" speed="13.89" length="0.69" shape="997.50,6121.27 997.31,6121.35 997.18,6121.41 997.05,6121.45 996.86,6121.51"/>
    </edge>
    <edge id=":1187929739_1" function="internal">
        <lane id=":1187929739_1_0" index="0" disallow="tram rail_urban rail rail_electric rail_fast ship" speed="13.89" length="0.23" shape="995.93,6118.45 996.00,6118.43 996.04,6118.41 996.09,6118.39 996.15,6118.36"/>
    </edge>
    <edge id=":1200524877_0" function="internal">
        <lane id=":1200524877_0_0" index="0" disallow="tram rail_urban rail rail_electric rail_fast ship" speed="13.12" length="6.33" shape="1150.17,6622.12 1148.30,6622.10 1147.02,6621.92 1145.80,6621.48 1144.11,6620.67"/>
    </edge>
    <edge id=":1209330191_0" function="internal">
        <lane id=":1209330191_0_0" index="0" disallow="tram rail_urban rail rail_electric rail_fast ship" speed="13.89" length="31.72" shape="2165.65,6276.05 2169.33,6272.62 2173.75,6266.91 2178.01,6259.01 2181.21,6249.02"/>
    </edge>
    <edge id=":1209330191_1" function="internal">
        <lane id=":1209330191_1_0" index="0" disallow="tram rail_urban rail rail_electric rail_fast ship" speed="13.89" length="29.34" shape="2165.65,6276.05 2169.23,6272.10 2173.89,6266.02 2179.51,6259.73 2185.97,6255.16"/>
    </edge>
    <edge id=":1209330191_2" function="internal">
        <lane id=":1209330191_2_0" index="0" disallow="tram rail_urban rail rail_electric rail_fast ship" speed="13.89" length="32.93" shape="2168.63,6278.34 2173.79,6269.79 2178.10,6264.06 2181.60,6258.31 2184.34,6249.69"/>
    </edge>
    <edge id=":1209330191_3" function="internal">
        <lane id=":1209330191_3_0" index="0" disallow="tram rail_urban rail rail_electric rail_fast ship" speed="13.89" length="28.15" shape="2171.64,6279.49 2175.31,6270.97 2177.80,6264.15 2180.79,6258.93 2185.97,6255.16"/>
        <lane id=":1209330191_3_1" index="1" disallow="tram rail_urban rail rail_electric rail_fast ship" speed="13.89" length="28.15" shape="2174.64,6280.65 2178.02,6272.65 2180.22,6266.28 2183.00,6261.36 2188.10,6257.71"/>
    </edge>
    <edge id=":1209330191_5" function="internal">
        <lane id=":1209330191_5_0" index="0" disallow="tram rail_urban rail rail_electric rail_fast ship" speed="13.89" length="29.62" shape="2176.19,6277.61 2178.18,6271.22 2181.26,6265.69 2184.62,6259.31 2187.47,6250.36"/>
    </edge>
    <edge id=":1209330191_6" function="internal">
        <lane id=":1209330191_6_0" index="0" disallow="tram rail_urban rail rail_electric rail_fast ship" speed="13.89" length="24.17" shape="2176.19,6277.61 2177.97,6268.92 2180.19,6262.27 2182.85,6257.69 2185.97,6255.16"/>
        <lane id=":1209330191_6_1" index="1" disallow="tram rail_urban rail rail_electric rail_fast ship" speed="13.39" length="24.17" shape="2179.30,6278.45 2180.93,6270.37 2182.94,6264.23 2185.33,6260.00 2188.10,6257.71"/>
    </edge>
    <edge id=":1209330270_0" function="internal">
        <lane id=":1209330270_0_0" index="0" disallow="tram rail_urban rail rail_electric rail_fast ship" speed="13.89" length="25.10" shape="2263.58,6271.91 2259.40,6296.72"/>
        <lane id=":1209330270_0_1" index="1" disallow="tram rail_urban rail rail_electric rail_fast ship" speed="13.89" length="25.10" shape="2260.42,6271.39 2256.25,6296.16"/>
        <lane id=":1209330270_0_2" index="2" disallow="tram rail_urban rail rail_electric rail_fast ship" speed="13.89" length="25.10" shape="2257.26,6270.87 2253.09,6295.61"/>
        <lane id=":1209330270_0_3" index="3" disallow="tram rail_urban rail rail_electric rail_fast ship" speed="13.89" length="25.10" shape="2254.10,6270.36 2249.94,6295.05"/>
    </edge>
    <edge id=":1209330270_4" function="internal">
        <lane id=":1209330270_4_0" index="0" disallow="tram rail_urban rail rail_electric rail_fast ship" speed="13.89" length="30.07" shape="2254.10,6270.36 2251.98,6281.35 2249.68,6289.69 2247.19,6295.36 2244.52,6298.37"/>
    </edge>
    <edge id=":1209330270_5" function="internal">
        <lane id=":1209330270_5_0" index="0" disallow="tram rail_urban rail rail_electric rail_fast ship" speed="13.89" length="24.08" shape="2249.77,6271.35 2252.29,6275.90 2253.69,6281.46 2253.95,6288.03 2253.09,6295.61"/>
        <lane id=":1209330270_5_1" index="1" disallow="tram rail_urban rail rail_electric rail_fast ship" speed="13.89" length="24.08" shape="2246.87,6272.83 2249.19,6277.01 2250.48,6282.10 2250.73,6288.12 2249.94,6295.05"/>
    </edge>
    <edge id=":1209330270_7" function="internal">
        <lane id=":1209330270_7_0" index="0" disallow="tram rail_urban rail rail_electric rail_fast ship" speed="10.22" length="25.70" shape="2246.87,6272.83 2249.12,6278.51 2248.89,6285.22 2246.51,6291.52 2242.29,6295.99"/>
    </edge>
    <edge id=":1209330304_0" function="internal">
        <lane id=":1209330304_0_0" index="0" allow="pedestrian delivery bicycle" speed="6.40" length="6.56" shape="2198.73,6245.50 2200.70,6245.00 2202.17,6244.22 2203.15,6243.16 2203.63,6241.83"/>
    </edge>
    <edge id=":1209330304_1" function="internal">
        <lane id=":1209330304_1_0" index="0" disallow="tram rail_urban rail rail_electric rail_fast ship" speed="13.89" length="6.36" shape="2198.73,6245.50 2200.99,6245.17 2202.55,6245.07 2204.12,6245.11 2206.40,6245.23"/>
        <lane id=":1209330304_1_1" index="1" disallow="tram rail_urban rail rail_electric rail_fast ship" speed="13.89" length="6.36" shape="2199.26,6248.66 2201.31,6248.36 2202.74,6248.27 2204.17,6248.31 2206.25,6248.42"/>
        <lane id=":1209330304_1_2" index="2" disallow="tram rail_urban rail rail_electric rail_fast ship" speed="13.89" length="6.36" shape="2199.78,6251.82 2201.64,6251.55 2202.93,6251.47 2204.22,6251.52 2206.10,6251.62"/>
        <lane id=":1209330304_1_3" index="3" disallow="tram rail_urban rail rail_electric rail_fast ship" speed="13.89" length="6.36" shape="2200.30,6254.98 2201.97,6254.68 2203.14,6254.51 2204.30,6254.55 2205.95,6254.84"/>
        <lane id=":1209330304_1_4" index="4" disallow="tram rail_urban rail rail_electric rail_fast ship" speed="13.89" length="6.36" shape="2200.82,6258.13 2202.29,6257.88 2203.32,6257.76 2204.34,6257.81 2205.80,6258.09"/>
    </edge>
    <edge id=":1209330365_0" function="internal">
        <lane id=":1209330365_0_0" index="0" disallow="tram rail_urban rail rail_electric rail_fast ship" speed="13.89" length="1.43" shape="2251.09,6254.99 2251.78,6255.14 2252.25,6255.27 2252.69,6255.47 2253.31,6255.80"/>
        <lane id=":1209330365_0_1" index="1" disallow="tram rail_urban rail rail_electric rail_fast ship" speed="13.89" length="1.43" shape="2250.45,6258.12 2250.86,6258.21 2251.14,6258.29 2251.41,6258.41 2251.78,6258.61"/>
        <lane id=":1209330365_0_2" index="2" disallow="tram rail_urban rail rail_electric rail_fast ship" speed="13.89" length="1.43" shape="2249.81,6261.26 2249.94,6261.29 2250.04,6261.31 2250.12,6261.35 2250.25,6261.42"/>
    </edge>
    <edge id=":1209330764_0" function="internal">
        <lane id=":1209330764_0_0" index="0" disallow="tram rail_urban rail rail_electric rail_fast ship" speed="2.78" length="6.07" shape="1973.61,6301.37 1967.97,6299.12"/>
    </edge>
    <edge id=":1209330764_1" function="internal">
        <lane id=":1209330764_1_0" index="0" disallow="tram rail_urban rail rail_electric rail_fast ship" speed="2.78" length="7.91" shape="1973.61,6301.37 1972.04,6300.43 1970.93,6299.04 1970.27,6297.18 1970.06,6294.85"/>
    </edge>
    <edge id=":1209330831_0" function="internal">
        <lane id=":1209330831_0_0" index="0" disallow="tram rail_urban rail rail_electric rail_fast ship" speed="13.89" length="7.91" shape="2190.71,6305.22 2188.64,6304.22 2187.42,6302.86 2186.19,6301.75 2184.08,6301.47"/>
    </edge>
    <edge id=":1209330831_1" function="internal">
        <lane id=":1209330831_1_0" index="0" disallow="tram rail_urban rail rail_electric rail_fast ship" speed="12.14" length="14.61" shape="2191.40,6302.09 2189.19,6301.07 2186.81,6298.95 2184.26,6295.72 2181.55,6291.39"/>
        <lane id=":1209330831_1_1" index="1" disallow="tram rail_urban rail rail_electric rail_fast ship" speed="11.95" length="14.61" shape="2192.09,6298.97 2190.46,6298.04 2188.44,6295.88 2186.03,6292.50 2183.23,6287.89"/>
    </edge>
    <edge id=":1209330936_0" function="internal">
        <lane id=":1209330936_0_0" index="0" disallow="tram rail_urban rail rail_electric rail_fast ship" speed="13.89" length="18.77" shape="2222.01,6313.81 2218.68,6312.21 2214.82,6311.11 2210.04,6310.20 2203.93,6309.22"/>
    </edge>
    <edge id=":1209330936_1" function="internal">
        <lane id=":1209330936_1_0" index="0" disallow="tram rail_urban rail rail_electric rail_fast ship" speed="13.89" length="17.77" shape="2222.01,6313.81 2206.70,6304.78"/>
    </edge>
    <edge id=":1209330936_2" function="internal">
        <lane id=":1209330936_2_0" index="0" disallow="tram rail_urban rail rail_electric rail_fast ship" speed="13.89" length="17.13" shape="2221.87,6307.37 2216.87,6308.42 2213.32,6308.18 2209.73,6307.22 2204.58,6306.08"/>
        <lane id=":1209330936_2_1" index="1" disallow="tram rail_urban rail rail_electric rail_fast ship" speed="13.89" length="17.13" shape="2221.51,6304.14 2216.80,6305.12 2213.46,6304.91 2210.08,6304.02 2205.24,6302.94"/>
    </edge>
    <edge id=":1209330936_4" function="internal">
        <lane id=":1209330936_4_0" index="0" disallow="tram rail_urban rail rail_electric rail_fast ship" speed="12.73" length="15.13" shape="2221.51,6304.14 2216.72,6305.34 2212.65,6305.84 2209.32,6305.66 2206.70,6304.78"/>
    </edge>
    <edge id=":1209332241_0" function="internal">
        <lane id=":1209332241_0_0" index="0" disallow="tram rail_urban rail rail_electric rail_fast ship" speed="13.89" length="17.71" shape="2211.17,6246.15 2216.32,6247.15 2219.90,6247.51 2223.51,6247.51 2228.77,6247.37"/>
    </edge>
    <edge id=":1209332241_1" function="internal">
        <lane id=":1209332241_1_0" index="0" disallow="tram rail_urban rail rail_electric rail_fast ship" speed="13.89" length="18.97" shape="2209.98,6249.17 2215.49,6250.25 2219.32,6250.68 2223.19,6250.70 2228.82,6250.57"/>
    </edge>
    <edge id=":1209332241_2" function="internal">
        <lane id=":1209332241_2_0" index="0" disallow="tram rail_urban rail rail_electric rail_fast ship" speed="13.89" length="20.24" shape="2208.78,6252.18 2214.66,6253.35 2218.74,6253.84 2222.87,6253.89 2228.87,6253.77"/>
    </edge>
    <edge id=":1209332241_3" function="internal">
        <lane id=":1209332241_3_0" index="0" disallow="tram rail_urban rail rail_electric rail_fast ship" speed="13.89" length="21.50" shape="2207.58,6255.20 2213.83,6256.45 2218.16,6257.00 2222.55,6257.09 2228.93,6256.97"/>
    </edge>
    <edge id=":1209332241_4" function="internal">
        <lane id=":1209332241_4_0" index="0" disallow="tram rail_urban rail rail_electric rail_fast ship" speed="13.89" length="22.77" shape="2206.39,6258.21 2213.00,6259.55 2217.59,6260.16 2222.22,6260.28 2228.98,6260.17"/>
    </edge>
    <edge id=":1209332241_5" function="internal">
        <lane id=":1209332241_5_0" index="0" disallow="tram rail_urban rail rail_electric rail_fast ship" speed="12.21" length="23.57" shape="2206.39,6258.21 2214.73,6260.39 2220.87,6262.86 2224.81,6265.62 2226.56,6268.67"/>
    </edge>
    <edge id=":1235055742_0" function="internal">
        <lane id=":1235055742_0_0" index="0" allow="pedestrian delivery bicycle" speed="5.56" length="4.70" shape="912.21,6305.99 913.46,6306.60 914.34,6306.97 915.25,6307.27 916.59,6307.64"/>
    </edge>
    <edge id=":1235055758_0" function="internal">
        <lane id=":1235055758_0_0" index="0" disallow="tram rail_urban rail rail_electric rail_fast ship" speed="13.89" length="3.37" shape="990.78,6420.59 990.37,6421.50 989.99,6422.09 989.68,6422.70 989.48,6423.66"/>
    </edge>
    <edge id=":1235055760_0" function="internal">
        <lane id=":1235055760_0_0" index="0" allow="pedestrian delivery bicycle" speed="5.56" length="0.30" shape="924.97,6309.96 925.25,6310.04"/>
    </edge>
    <edge id=":1235055771_0" function="internal">
        <lane id=":1235055771_0_0" index="0" disallow="tram rail_urban rail rail_electric rail_fast ship" speed="8.33" length="4.99" shape="911.09,6347.00 906.35,6345.47"/>
    </edge>
    <edge id=":1235055771_1" function="internal">
        <lane id=":1235055771_1_0" index="0" disallow="tram rail_urban rail rail_electric rail_fast ship" speed="3.65" length="2.34" shape="911.09,6347.00 910.19,6345.87 910.05,6344.99"/>
    </edge>
    <edge id=":1235055771_4" function="internal">
        <lane id=":1235055771_4_0" index="0" disallow="tram rail_urban rail rail_electric rail_fast ship" speed="3.65" length="2.34" shape="910.05,6344.99 910.67,6344.35 912.06,6343.95"/>
    </edge>
    <edge id=":1235055771_2" function="internal">
        <lane id=":1235055771_2_0" index="0" disallow="tram rail_urban rail rail_electric rail_fast ship" speed="8.33" length="4.95" shape="907.34,6342.43 912.06,6343.95"/>
    </edge>
    <edge id=":1235055771_3" function="internal">
        <lane id=":1235055771_3_0" index="0" disallow="tram rail_urban rail rail_electric rail_fast ship" speed="3.65" length="2.34" shape="907.34,6342.43 908.23,6343.57 908.37,6344.45"/>
    </edge>
    <edge id=":1235055771_5" function="internal">
        <lane id=":1235055771_5_0" index="0" disallow="tram rail_urban rail rail_electric rail_fast ship" speed="3.65" length="2.34" shape="908.37,6344.45 907.74,6345.09 906.35,6345.47"/>
    </edge>
    <edge id=":1235055815_0" function="internal">
        <lane id=":1235055815_0_0" index="0" disallow="tram rail_urban rail rail_electric rail_fast ship" speed="13.89" length="0.94" shape="975.47,6449.30 975.74,6449.22 975.92,6449.18 976.11,6449.17 976.39,6449.16"/>
    </edge>
    <edge id=":1255433822_0" function="internal">
        <lane id=":1255433822_0_0" index="0" disallow="tram rail_urban rail rail_electric rail_fast ship" speed="13.89" length="5.80" shape="876.66,6644.11 871.90,6647.44"/>
    </edge>
    <edge id=":1255433822_1" function="internal">
        <lane id=":1255433822_1_0" index="0" disallow="tram rail_urban rail rail_electric rail_fast ship" speed="3.65" length="2.34" shape="876.66,6644.11 875.21,6644.17 874.42,6643.76"/>
    </edge>
    <edge id=":1255433822_4" function="internal">
        <lane id=":1255433822_4_0" index="0" disallow="tram rail_urban rail rail_electric rail_fast ship" speed="3.65" length="2.34" shape="874.42,6643.76 874.27,6642.88 874.77,6641.52"/>
    </edge>
    <edge id=":1255433822_2" function="internal">
        <lane id=":1255433822_2_0" index="0" disallow="tram rail_urban rail rail_electric rail_fast ship" speed="13.89" length="5.66" shape="870.14,6644.77 874.77,6641.52"/>
    </edge>
    <edge id=":1255433822_3" function="internal">