<?xml version="1.0" encoding="UTF-8"?>

<!-- generated on 11/23/20 12:23:37 by Eclipse SUMO netedit Version 1.7.0
<configuration xmlns:xsi="http://www.w3.org/2001/XMLSchema-instance" xsi:noNamespaceSchemaLocation="http://sumo.dlr.de/xsd/netconvertConfiguration.xsd">

    <output>
        <output-file value="C:\Users\Sandrus\Documents\Research\SUMO\SUMO_DEMOS\TrafficLights\traffic.net.xml"/>
    </output>

    <processing>
        <offset.disable-normalization value="true"/>
    </processing>

    <junctions>
        <no-turnarounds value="true"/>
    </junctions>

    <report>
        <aggregate-warnings value="5"/>
    </report>

</configuration>
-->

<net version="1.6" junctionCornerDetail="5" limitTurnSpeed="5.50" xmlns:xsi="http://www.w3.org/2001/XMLSchema-instance" xsi:noNamespaceSchemaLocation="http://sumo.dlr.de/xsd/net_file.xsd">

    <location netOffset="0.00,0.00" convBoundary="-162.91,-125.00,369.14,232.19" origBoundary="10000000000.00,10000000000.00,-10000000000.00,-10000000000.00" projParameter="!"/>

    <edge id=":j0_0" function="internal">
        <lane id=":j0_0_0" index="0" speed="6.54" length="9.09" shape="126.01,59.99 123.54,60.35 121.77,61.40 120.71,63.16 120.34,65.62"/>
    </edge>
    <edge id=":j0_1" function="internal">
        <lane id=":j0_1_0" index="0" speed="13.89" length="20.84" shape="126.01,59.99 105.16,59.97"/>
    </edge>
    <edge id=":j0_2" function="internal">
        <lane id=":j0_2_0" index="0" speed="8.03" length="14.24" shape="126.01,56.79 122.14,57.35 119.38,59.00 117.71,61.75 117.14,65.61"/>
    </edge>
    <edge id=":j0_3" function="internal">
        <lane id=":j0_3_0" index="0" speed="13.89" length="20.83" shape="126.01,56.79 105.17,56.77"/>
    </edge>
    <edge id=":j0_4" function="internal">
        <lane id=":j0_4_0" index="0" speed="9.83" length="22.02" shape="126.01,56.79 119.35,56.04 114.60,53.79 111.75,50.02 110.82,44.76"/>
    </edge>
    <edge id=":j0_5" function="internal">
        <lane id=":j0_5_0" index="0" speed="9.25" length="19.38" shape="126.01,56.79 120.75,56.04 117.00,53.79 114.75,50.03 114.02,44.77"/>
    </edge>
    <edge id=":j0_6" function="internal">
        <lane id=":j0_6_0" index="0" speed="6.50" length="9.03" shape="120.42,44.79 120.76,47.24 121.81,48.99 123.55,50.04 126.01,50.39"/>
    </edge>
    <edge id=":j0_7" function="internal">
        <lane id=":j0_7_0" index="0" speed="13.89" length="20.83" shape="120.42,44.79 120.34,65.62"/>
    </edge>
    <edge id=":j0_8" function="internal">
        <lane id=":j0_8_0" index="0" speed="10.10" length="13.44" shape="120.42,44.79 119.03,50.19 115.47,55.08 114.00,56.14"/>
    </edge>
    <edge id=":j0_9" function="internal">
        <lane id=":j0_9_0" index="0" speed="8.00" length="5.93" shape="117.22,44.78 117.76,48.64 118.80,50.38"/>
    </edge>
    <edge id=":j0_10" function="internal">
        <lane id=":j0_10_0" index="0" speed="13.89" length="20.83" shape="117.22,44.78 117.14,65.61"/>
    </edge>
    <edge id=":j0_11" function="internal">
        <lane id=":j0_11_0" index="0" speed="9.03" length="6.97" shape="117.22,44.78 116.13,49.04 114.61,51.12"/>
    </edge>
    <edge id=":j0_24" function="internal">
        <lane id=":j0_24_0" index="0" speed="10.10" length="9.80" shape="114.00,56.14 110.57,58.61 105.16,59.97"/>
    </edge>
    <edge id=":j0_25" function="internal">
        <lane id=":j0_25_0" index="0" speed="8.00" length="8.28" shape="118.80,50.38 119.40,51.39 122.15,53.04 126.01,53.59"/>
    </edge>
    <edge id=":j0_26" function="internal">
        <lane id=":j0_26_0" index="0" speed="9.03" length="11.38" shape="114.61,51.12 113.31,52.90 109.44,55.70 105.17,56.77"/>
    </edge>
    <edge id=":j0_12" function="internal">
        <lane id=":j0_12_0" index="0" speed="6.52" length="9.06" shape="105.19,50.37 107.65,50.02 109.40,48.97 110.46,47.22 110.82,44.76"/>
    </edge>
    <edge id=":j0_13" function="internal">
        <lane id=":j0_13_0" index="0" speed="13.89" length="20.82" shape="105.19,50.37 126.01,50.39"/>
    </edge>
    <edge id=":j0_14" function="internal">
        <lane id=":j0_14_0" index="0" speed="8.01" length="14.22" shape="105.18,53.57 109.04,53.03 111.79,51.38 113.46,48.63 114.02,44.77"/>
    </edge>
    <edge id=":j0_15" function="internal">
        <lane id=":j0_15_0" index="0" speed="13.89" length="20.82" shape="105.18,53.57 126.01,53.59"/>
    </edge>
    <edge id=":j0_16" function="internal">
        <lane id=":j0_16_0" index="0" speed="9.84" length="22.00" shape="105.18,53.57 111.83,54.34 116.58,56.60 119.41,60.36 120.34,65.62"/>
    </edge>
    <edge id=":j0_17" function="internal">
        <lane id=":j0_17_0" index="0" speed="9.26" length="19.36" shape="105.18,53.57 110.43,54.33 114.18,56.59 116.41,60.35 117.14,65.61"/>
    </edge>
    <edge id=":j0_18" function="internal">
        <lane id=":j0_18_0" index="0" speed="6.50" length="9.03" shape="110.74,65.58 110.40,63.13 109.36,61.38 107.61,60.32 105.16,59.97"/>
    </edge>
    <edge id=":j0_19" function="internal">
        <lane id=":j0_19_0" index="0" speed="13.89" length="20.83" shape="110.74,65.58 110.82,44.76"/>
    </edge>
    <edge id=":j0_20" function="internal">
        <lane id=":j0_20_0" index="0" speed="8.00" length="5.93" shape="113.94,65.60 113.41,61.74 112.36,59.99"/>
    </edge>
    <edge id=":j0_21" function="internal">
        <lane id=":j0_21_0" index="0" speed="13.89" length="20.83" shape="113.94,65.60 114.02,44.77"/>
    </edge>
    <edge id=":j0_22" function="internal">
        <lane id=":j0_22_0" index="0" speed="9.60" length="6.39" shape="113.94,65.60 115.00,60.49 115.57,59.47"/>
    </edge>
    <edge id=":j0_23" function="internal">
        <lane id=":j0_23_0" index="0" speed="9.05" length="5.29" shape="113.94,65.60 115.04,61.33 115.56,60.61"/>
    </edge>
    <edge id=":j0_27" function="internal">
        <lane id=":j0_27_0" index="0" speed="8.00" length="8.26" shape="112.36,59.99 111.77,58.99 109.02,57.33 105.17,56.77"/>
    </edge>
    <edge id=":j0_28" function="internal">
        <lane id=":j0_28_0" index="0" speed="9.60" length="14.46" shape="115.57,59.47 117.73,55.57 121.59,51.86 126.01,50.39"/>
    </edge>
    <edge id=":j0_29" function="internal">
        <lane id=":j0_29_0" index="0" speed="9.05" length="13.08" shape="115.56,60.61 117.86,57.47 121.73,54.67 126.01,53.59"/>
    </edge>
    <edge id=":n1_0" function="internal">
        <lane id=":n1_0_0" index="0" speed="5.49" length="10.83" shape="-136.93,59.32 -140.59,59.63 -142.06,60.58 -141.34,62.17 -138.43,64.41"/>
    </edge>
    <edge id=":n1_1" function="internal">
        <lane id=":n1_1_0" index="0" speed="7.74" length="23.38" shape="-136.93,56.12 -144.81,56.79 -147.98,58.84 -146.43,62.28 -140.16,67.11"/>
    </edge>
    <edge id=":n1_2" function="internal">
        <lane id=":n1_2_0" index="0" speed="5.53" length="10.95" shape="-138.71,44.60 -141.57,46.83 -142.22,48.43 -140.67,49.39 -136.91,49.72"/>
    </edge>
    <edge id=":n1_3" function="internal">
        <lane id=":n1_3_0" index="0" speed="6.73" length="17.16" shape="-138.71,44.60 -143.43,48.22 -144.70,50.82 -142.53,52.38 -136.92,52.92"/>
    </edge>
    <edge id=":n1_4" function="internal">
        <lane id=":n1_4_0" index="0" speed="10.42" length="32.91" shape="-140.44,41.91 -147.74,48.18 -150.12,54.48 -147.60,60.78 -140.16,67.11"/>
    </edge>
    <edge id=":n2_0" function="internal">
        <lane id=":n2_0_0" index="0" speed="5.58" length="9.35" shape="119.77,215.90 120.12,218.74 121.20,220.19 123.01,220.26 125.55,218.93"/>
    </edge>
    <edge id=":n2_1" function="internal">
        <lane id=":n2_1_0" index="0" speed="7.38" length="17.49" shape="116.57,215.88 117.23,221.20 119.25,223.92 122.63,224.04 127.38,221.56"/>
    </edge>
    <edge id=":n2_2" function="internal">
        <lane id=":n2_2_0" index="0" speed="5.75" length="9.75" shape="104.32,219.72 106.87,220.87 108.70,220.62 109.80,218.94 110.17,215.86"/>
    </edge>
    <edge id=":n2_3" function="internal">
        <lane id=":n2_3_0" index="0" speed="6.67" length="13.67" shape="104.32,219.72 108.27,221.64 111.09,221.64 112.79,219.72 113.37,215.87"/>
    </edge>
    <edge id=":n2_4" function="internal">
        <lane id=":n2_4_0" index="0" speed="12.78" length="26.44" shape="102.60,222.41 108.75,225.31 114.93,226.13 121.14,224.88 127.38,221.56"/>
    </edge>
    <edge id=":n3_0" function="internal">
        <lane id=":n3_0_0" index="0" speed="5.52" length="10.70" shape="344.75,50.39 348.39,50.06 349.95,49.08 349.42,47.45 346.80,45.17"/>
    </edge>
    <edge id=":n3_1" function="internal">
        <lane id=":n3_1_0" index="0" speed="7.66" length="22.34" shape="344.75,53.59 352.26,52.90 355.42,50.83 354.21,47.39 348.65,42.56"/>
    </edge>
    <edge id=":n3_2" function="internal">
        <lane id=":n3_2_0" index="0" speed="5.47" length="10.54" shape="346.38,65.19 349.08,62.91 349.70,61.29 348.26,60.32 344.75,59.99"/>
    </edge>
    <edge id=":n3_3" function="internal">
        <lane id=":n3_3_0" index="0" speed="6.65" length="16.46" shape="346.38,65.19 350.80,61.51 352.00,58.89 349.98,57.32 344.75,56.79"/>
    </edge>
    <edge id=":n3_4" function="internal">
        <lane id=":n3_4_0" index="0" speed="10.51" length="31.85" shape="348.21,67.82 355.04,61.50 357.40,55.18 355.26,48.87 348.65,42.56"/>
    </edge>
    <edge id=":n4_0" function="internal">
        <lane id=":n4_0_0" index="0" speed="5.58" length="9.36" shape="126.73,-111.60 124.20,-112.95 122.39,-112.91 121.30,-111.46 120.93,-108.62"/>
    </edge>
    <edge id=":n4_1" function="internal">
        <lane id=":n4_1_0" index="0" speed="6.55" length="13.48" shape="126.73,-111.60 122.80,-113.81 119.99,-114.05 118.30,-112.32 117.73,-108.63"/>
    </edge>
    <edge id=":n4_2" function="internal">
        <lane id=":n4_2_0" index="0" speed="12.70" length="26.50" shape="128.58,-114.20 122.36,-117.58 116.16,-118.87 109.96,-118.05 103.78,-115.13"/>
    </edge>
    <edge id=":n4_3" function="internal">
        <lane id=":n4_3_0" index="0" speed="5.72" length="9.71" shape="111.33,-108.65 110.97,-111.71 109.88,-113.36 108.06,-113.61 105.51,-112.43"/>
    </edge>
    <edge id=":n4_4" function="internal">
        <lane id=":n4_4_0" index="0" speed="7.47" length="17.59" shape="114.53,-108.64 113.87,-114.08 111.86,-116.97 108.50,-117.32 103.78,-115.13"/>
    </edge>

    <edge id="-e1" from="j0" to="n1" priority="-1">
        <lane id="-e1_0" index="0" speed="13.89" length="242.10" shape="105.16,59.97 -136.93,59.32"/>
        <lane id="-e1_1" index="1" speed="13.89" length="242.10" shape="105.17,56.77 -136.93,56.12"/>
    </edge>
    <edge id="-e2" from="n2" to="j0" priority="-1">
        <lane id="-e2_0" index="0" speed="13.89" length="150.28" shape="110.17,215.86 110.74,65.58"/>
        <lane id="-e2_1" index="1" speed="13.89" length="150.28" shape="113.37,215.87 113.94,65.60"/>
    </edge>
    <edge id="-e3" from="n3" to="j0" priority="-1">
        <lane id="-e3_0" index="0" speed="13.89" length="218.74" shape="344.75,59.99 126.01,59.99"/>
        <lane id="-e3_1" index="1" speed="13.89" length="218.74" shape="344.75,56.79 126.01,56.79"/>
    </edge>
    <edge id="-e4" from="n4" to="j0" priority="-1">
        <lane id="-e4_0" index="0" speed="13.89" length="153.41" shape="120.93,-108.62 120.42,44.79"/>
        <lane id="-e4_1" index="1" speed="13.89" length="153.41" shape="117.73,-108.63 117.22,44.78"/>
    </edge>
    <edge id="5" from="n1" to="n2" priority="-1">
        <lane id="5_0" index="0" speed="13.89" length="288.18" shape="-138.43,64.41 104.32,219.72"/>
        <lane id="5_1" index="1" speed="13.89" length="288.18" shape="-140.16,67.11 102.60,222.41"/>
    </edge>
    <edge id="6" from="n2" to="n3" priority="-1">
        <lane id="6_0" index="0" speed="13.89" length="269.07" shape="125.55,218.93 346.38,65.19"/>
        <lane id="6_1" index="1" speed="13.89" length="269.07" shape="127.38,221.56 348.21,67.82"/>
    </edge>
    <edge id="7" from="n3" to="n4" priority="-1">
        <lane id="7_0" index="0" speed="13.89" length="270.19" shape="346.80,45.17 126.73,-111.60"/>
        <lane id="7_1" index="1" speed="13.89" length="270.19" shape="348.65,42.56 128.58,-114.20"/>
    </edge>
    <edge id="8" from="n4" to="n1" priority="-1">
        <lane id="8_0" index="0" speed="13.89" length="290.35" shape="105.51,-112.43 -138.71,44.60"/>
        <lane id="8_1" index="1" speed="13.89" length="290.35" shape="103.78,-115.13 -140.44,41.91"/>
    </edge>
    <edge id="e1" from="n1" to="j0" priority="-1">
        <lane id="e1_0" index="0" speed="13.89" length="242.10" shape="-136.91,49.72 105.19,50.37"/>
        <lane id="e1_1" index="1" speed="13.89" length="242.10" shape="-136.92,52.92 105.18,53.57"/>
    </edge>
    <edge id="e2" from="j0" to="n2" priority="-1">
        <lane id="e2_0" index="0" speed="13.89" length="150.28" shape="120.34,65.62 119.77,215.90"/>
        <lane id="e2_1" index="1" speed="13.89" length="150.28" shape="117.14,65.61 116.57,215.88"/>
    </edge>
    <edge id="e3" from="j0" to="n3" priority="-1">
        <lane id="e3_0" index="0" speed="13.89" length="218.74" shape="126.01,50.39 344.75,50.39"/>
        <lane id="e3_1" index="1" speed="13.89" length="218.74" shape="126.01,53.59 344.75,53.59"/>
    </edge>
    <edge id="e4" from="j0" to="n4" priority="-1">
        <lane id="e4_0" index="0" speed="13.89" length="153.41" shape="110.82,44.76 111.33,-108.65"/>
        <lane id="e4_1" index="1" speed="13.89" length="153.41" shape="114.02,44.77 114.53,-108.64"/>
    </edge>

    <junction id="j0" type="priority" x="115.58" y="55.19" incLanes="-e3_0 -e3_1 -e4_0 -e4_1 e1_0 e1_1 -e2_0 -e2_1" intLanes=":j0_0_0 :j0_1_0 :j0_2_0 :j0_3_0 :j0_4_0 :j0_5_0 :j0_6_0 :j0_7_0 :j0_24_0 :j0_25_0 :j0_10_0 :j0_26_0 :j0_12_0 :j0_13_0 :j0_14_0 :j0_15_0 :j0_16_0 :j0_17_0 :j0_18_0 :j0_19_0 :j0_27_0 :j0_21_0 :j0_28_0 :j0_29_0" shape="126.01,61.59 126.01,48.79 123.78,48.35 123.01,47.79 122.46,47.02 122.13,46.02 122.02,44.79 109.22,44.75 108.77,46.99 108.21,47.77 107.42,48.33 106.42,48.66 105.19,48.77 105.16,61.57 107.38,62.02 108.16,62.57 108.71,63.35 109.04,64.36 109.14,65.58 121.94,65.63 122.40,63.39 122.97,62.60 123.76,62.04 124.77,61.71">
        <request index="0"  response="000000000000010010000000" foes="000000110000010010000000" cont="0"/>
        <request index="1"  response="111111000000110110000000" foes="111111110000110110000100" cont="0"/>
        <request index="2"  response="000000000000010010000010" foes="000000110000010010000010" cont="0"/>
        <request index="3"  response="111111000000110110000000" foes="111111110000110110000000" cont="0"/>
        <request index="4"  response="111010001111110110000000" foes="111010001111110110000000" cont="0"/>
        <request index="5"  response="111010001111110110000000" foes="111010001111110110000000" cont="0"/>
        <request index="6"  response="000000000000000000000000" foes="110000001010000000000000" cont="0"/>
        <request index="7"  response="000000000000000000000000" foes="110000111010001000111111" cont="0"/>
        <request index="8"  response="001111000000010000000000" foes="001111111010011000111010" cont="1"/>
        <request index="9"  response="000000000000000110000000" foes="110000001010000110000000" cont="1"/>
        <request index="10" response="000000000000000000000000" foes="110000111010000100111111" cont="0"/>
        <request index="11" response="001111000000000000000000" foes="001111111010000000111010" cont="1"/>
        <request index="12" response="001010000000000000000000" foes="001010000000000000110000" cont="0"/>
        <request index="13" response="111010000000111111000000" foes="111010000100111111110000" cont="0"/>
        <request index="14" response="001010000010000000000000" foes="001010000010000000110000" cont="0"/>
        <request index="15" response="111010000000111111000000" foes="111010000000111111110000" cont="0"/>
        <request index="16" response="111010000000110110001111" foes="111010000000110110001111" cont="0"/>
        <request index="17" response="111010000000110110001111" foes="111010000000110110001111" cont="0"/>
        <request index="18" response="000000000000000000000000" foes="000000000000100100001010" cont="0"/>
        <request index="19" response="000000000000000000000000" foes="000100111111100100111010" cont="0"/>
        <request index="20" response="000010000000000000000000" foes="000010000000100100001010" cont="1"/>
        <request index="21" response="000000000000000000000000" foes="000000111111100100111010" cont="0"/>
        <request index="22" response="000000000000011011000000" foes="000000111010011011111010" cont="1"/>
        <request index="23" response="000000000000011011000000" foes="000000111010011011111010" cont="1"/>
    </junction>
    <junction id="n1" type="priority" x="-162.91" y="54.45" incLanes="-e1_0 -e1_1 8_0 8_1" intLanes=":n1_0_0 :n1_1_0 :n1_2_0 :n1_3_0 :n1_4_0" shape="-141.02,68.46 -137.57,63.06 -136.94,60.92 -136.90,48.12 -137.85,45.94 -141.31,40.56 -147.30,45.19 -150.88,49.83 -152.04,54.48 -150.78,59.13 -147.11,63.79">
        <request index="0" response="00000" foes="10000" cont="0"/>
        <request index="1" response="00000" foes="10000" cont="0"/>
        <request index="2" response="00000" foes="00000" cont="0"/>
        <request index="3" response="00000" foes="00000" cont="0"/>
        <request index="4" response="00011" foes="00011" cont="0"/>
    </junction>
    <junction id="n2" type="priority" x="114.91" y="232.19" incLanes="e2_0 e2_1 5_0 5_1" intLanes=":n2_0_0 :n2_1_0 :n2_2_0 :n2_3_0 :n2_4_0" shape="128.30,222.87 124.64,217.62 122.82,218.44 122.18,218.33 121.73,217.87 121.46,217.06 121.37,215.90 108.57,215.85 108.19,218.21 107.72,218.82 107.06,219.05 106.22,218.90 105.18,218.37 101.74,223.76 106.13,226.08 110.54,227.41 114.96,227.75 119.40,227.11 123.84,225.48">
        <request index="0" response="00000" foes="10000" cont="0"/>
        <request index="1" response="00000" foes="10000" cont="0"/>
        <request index="2" response="00000" foes="00000" cont="0"/>
        <request index="3" response="00000" foes="00000" cont="0"/>
        <request index="4" response="00011" foes="00011" cont="0"/>
    </junction>
    <junction id="n3" type="priority" x="369.14" y="55.19" incLanes="e3_0 e3_1 6_0 6_1" intLanes=":n3_0_0 :n3_1_0 :n3_2_0 :n3_3_0 :n3_4_0" shape="349.58,41.26 345.87,46.47 347.19,47.76 347.22,48.21 346.82,48.53 345.99,48.73 344.75,48.79 344.75,61.59 346.60,61.84 346.93,62.16 346.84,62.61 346.36,63.18 345.46,63.88 349.12,69.13 354.69,64.48 358.07,59.84 359.25,55.19 358.22,50.55 355.00,45.90">
        <request index="0" response="00000" foes="10000" cont="0"/>
        <request index="1" response="00000" foes="10000" cont="0"/>
        <request index="2" response="00000" foes="00000" cont="0"/>
        <request index="3" response="00000" foes="00000" cont="0"/>
        <request index="4" response="00011" foes="00011" cont="0"/>
    </junction>
    <junction id="n4" type="priority" x="116.18" y="-125.00" incLanes="7_0 7_1 e4_0 e4_1" intLanes=":n4_0_0 :n4_1_0 :n4_2_0 :n4_3_0 :n4_4_0" shape="125.80,-110.29 129.51,-115.50 125.07,-118.17 120.63,-119.83 116.20,-120.49 111.77,-120.15 107.34,-118.81 102.92,-116.47 106.38,-111.09 108.24,-111.78 108.90,-111.56 109.36,-110.97 109.64,-110.00 109.73,-108.65 122.53,-108.61 122.90,-110.58 123.35,-111.03 123.99,-111.14 124.80,-110.89">
        <request index="0" response="00000" foes="00000" cont="0"/>
        <request index="1" response="00000" foes="00000" cont="0"/>
        <request index="2" response="11000" foes="11000" cont="0"/>
        <request index="3" response="00000" foes="00100" cont="0"/>
        <request index="4" response="00000" foes="00100" cont="0"/>
    </junction>

    <junction id=":j0_24_0" type="internal" x="114.00" y="56.14" incLanes=":j0_8_0 -e2_0 -e2_1" intLanes=":j0_1_0 :j0_3_0 :j0_4_0 :j0_5_0 :j0_10_0 :j0_13_0 :j0_15_0 :j0_16_0 :j0_17_0 :j0_18_0 :j0_19_0 :j0_20_0 :j0_21_0"/>
    <junction id=":j0_25_0" type="internal" x="118.80" y="50.38" incLanes=":j0_9_0 -e4_0" intLanes=":j0_7_0 :j0_8_0 :j0_13_0 :j0_15_0 :j0_22_0 :j0_23_0"/>
    <junction id=":j0_26_0" type="internal" x="114.61" y="51.12" incLanes=":j0_11_0 -e2_0 -e2_1" intLanes=":j0_1_0 :j0_3_0 :j0_4_0 :j0_5_0 :j0_13_0 :j0_15_0 :j0_16_0 :j0_17_0 :j0_18_0 :j0_19_0 :j0_20_0 :j0_21_0"/>
    <junction id=":j0_27_0" type="internal" x="112.36" y="59.99" incLanes=":j0_20_0 -e2_0" intLanes=":j0_1_0 :j0_3_0 :j0_8_0 :j0_11_0 :j0_19_0"/>
    <junction id=":j0_28_0" type="internal" x="115.57" y="59.47" incLanes=":j0_22_0 -e4_0 -e4_1" intLanes=":j0_1_0 :j0_3_0 :j0_4_0 :j0_5_0 :j0_6_0 :j0_7_0 :j0_9_0 :j0_10_0 :j0_13_0 :j0_15_0 :j0_16_0 :j0_17_0"/>
    <junction id=":j0_29_0" type="internal" x="115.56" y="60.61" incLanes=":j0_23_0 -e4_0 -e4_1" intLanes=":j0_1_0 :j0_3_0 :j0_4_0 :j0_5_0 :j0_6_0 :j0_7_0 :j0_9_0 :j0_10_0 :j0_13_0 :j0_15_0 :j0_16_0 :j0_17_0"/>

    <connection from="-e1" to="5" fromLane="0" toLane="0" via=":n1_0_0" dir="r" state="M"/>
    <connection from="-e1" to="5" fromLane="1" toLane="1" via=":n1_1_0" dir="r" state="M"/>
    <connection from="-e2" to="-e1" fromLane="0" toLane="0" via=":j0_18_0" dir="r" state="M"/>
    <connection from="-e2" to="e4" fromLane="0" toLane="0" via=":j0_19_0" dir="s" state="M"/>
    <connection from="-e2" to="-e1" fromLane="1" toLane="1" via=":j0_20_0" dir="r" state="m"/>
    <connection from="-e2" to="e4" fromLane="1" toLane="1" via=":j0_21_0" dir="s" state="M"/>
    <connection from="-e2" to="e3" fromLane="1" toLane="0" via=":j0_22_0" dir="l" state="m"/>
    <connection from="-e2" to="e3" fromLane="1" toLane="1" via=":j0_23_0" dir="l" state="m"/>
    <connection from="-e3" to="e2" fromLane="0" toLane="0" via=":j0_0_0" dir="r" state="m"/>
    <connection from="-e3" to="-e1" fromLane="0" toLane="0" via=":j0_1_0" dir="s" state="m"/>
    <connection from="-e3" to="e2" fromLane="1" toLane="1" via=":j0_2_0" dir="r" state="m"/>
    <connection from="-e3" to="-e1" fromLane="1" toLane="1" via=":j0_3_0" dir="s" state="m"/>
    <connection from="-e3" to="e4" fromLane="1" toLane="0" via=":j0_4_0" dir="l" state="m"/>
    <connection from="-e3" to="e4" fromLane="1" toLane="1" via=":j0_5_0" dir="l" state="m"/>
    <connection from="-e4" to="e3" fromLane="0" toLane="0" via=":j0_6_0" dir="r" state="M"/>
    <connection from="-e4" to="e2" fromLane="0" toLane="0" via=":j0_7_0" dir="s" state="M"/>
    <connection from="-e4" to="-e1" fromLane="0" toLane="0" via=":j0_8_0" dir="l" state="m"/>
    <connection from="-e4" to="e3" fromLane="1" toLane="1" via=":j0_9_0" dir="r" state="m"/>
    <connection from="-e4" to="e2" fromLane="1" toLane="1" via=":j0_10_0" dir="s" state="M"/>
    <connection from="-e4" to="-e1" fromLane="1" toLane="1" via=":j0_11_0" dir="l" state="m"/>
    <connection from="5" to="-e2" fromLane="0" toLane="0" via=":n2_2_0" dir="r" state="M"/>
    <connection from="5" to="-e2" fromLane="0" toLane="1" via=":n2_3_0" dir="r" state="M"/>
    <connection from="5" to="6" fromLane="1" toLane="1" via=":n2_4_0" dir="R" state="m"/>
    <connection from="6" to="-e3" fromLane="0" toLane="0" via=":n3_2_0" dir="r" state="M"/>
    <connection from="6" to="-e3" fromLane="0" toLane="1" via=":n3_3_0" dir="r" state="M"/>
    <connection from="6" to="7" fromLane="1" toLane="1" via=":n3_4_0" dir="r" state="m"/>
    <connection from="7" to="-e4" fromLane="0" toLane="0" via=":n4_0_0" dir="r" state="M"/>
    <connection from="7" to="-e4" fromLane="0" toLane="1" via=":n4_1_0" dir="r" state="M"/>
    <connection from="7" to="8" fromLane="1" toLane="1" via=":n4_2_0" dir="R" state="m"/>
    <connection from="8" to="e1" fromLane="0" toLane="0" via=":n1_2_0" dir="r" state="M"/>
    <connection from="8" to="e1" fromLane="0" toLane="1" via=":n1_3_0" dir="r" state="M"/>
    <connection from="8" to="5" fromLane="1" toLane="1" via=":n1_4_0" dir="r" state="m"/>
    <connection from="e1" to="e4" fromLane="0" toLane="0" via=":j0_12_0" dir="r" state="m"/>
    <connection from="e1" to="e3" fromLane="0" toLane="0" via=":j0_13_0" dir="s" state="m"/>
    <connection from="e1" to="e4" fromLane="1" toLane="1" via=":j0_14_0" dir="r" state="m"/>
    <connection from="e1" to="e3" fromLane="1" toLane="1" via=":j0_15_0" dir="s" state="m"/>
    <connection from="e1" to="e2" fromLane="1" toLane="0" via=":j0_16_0" dir="l" state="m"/>
    <connection from="e1" to="e2" fromLane="1" toLane="1" via=":j0_17_0" dir="l" state="m"/>
    <connection from="e2" to="6" fromLane="0" toLane="0" via=":n2_0_0" dir="r" state="M"/>
    <connection from="e2" to="6" fromLane="1" toLane="1" via=":n2_1_0" dir="r" state="M"/>
    <connection from="e3" to="7" fromLane="0" toLane="0" via=":n3_0_0" dir="r" state="M"/>
    <connection from="e3" to="7" fromLane="1" toLane="1" via=":n3_1_0" dir="r" state="M"/>
    <connection from="e4" to="8" fromLane="0" toLane="0" via=":n4_3_0" dir="r" state="M"/>
    <connection from="e4" to="8" fromLane="1" toLane="1" via=":n4_4_0" dir="r" state="M"/>

    <connection from=":j0_0" to="e2" fromLane="0" toLane="0" dir="r" state="M"/>
    <connection from=":j0_1" to="-e1" fromLane="0" toLane="0" dir="s" state="M"/>
    <connection from=":j0_2" to="e2" fromLane="0" toLane="1" dir="r" state="M"/>
    <connection from=":j0_3" to="-e1" fromLane="0" toLane="1" dir="s" state="M"/>
    <connection from=":j0_4" to="e4" fromLane="0" toLane="0" dir="l" state="M"/>
    <connection from=":j0_5" to="e4" fromLane="0" toLane="1" dir="l" state="M"/>
    <connection from=":j0_6" to="e3" fromLane="0" toLane="0" dir="r" state="M"/>
    <connection from=":j0_7" to="e2" fromLane="0" toLane="0" dir="s" state="M"/>
    <connection from=":j0_8" to="-e1" fromLane="0" toLane="0" via=":j0_24_0" dir="l" state="m"/>
    <connection from=":j0_24" to="-e1" fromLane="0" toLane="0" dir="l" state="M"/>
    <connection from=":j0_9" to="e3" fromLane="0" toLane="1" via=":j0_25_0" dir="r" state="m"/>
    <connection from=":j0_25" to="e3" fromLane="0" toLane="1" dir="r" state="M"/>
    <connection from=":j0_10" to="e2" fromLane="0" toLane="1" dir="s" state="M"/>
    <connection from=":j0_11" to="-e1" fromLane="0" toLane="1" via=":j0_26_0" dir="l" state="m"/>
    <connection from=":j0_26" to="-e1" fromLane="0" toLane="1" dir="l" state="M"/>
    <connection from=":j0_12" to="e4" fromLane="0" toLane="0" dir="r" state="M"/>
    <connection from=":j0_13" to="e3" fromLane="0" toLane="0" dir="s" state="M"/>
    <connection from=":j0_14" to="e4" fromLane="0" toLane="1" dir="r" state="M"/>
    <connection from=":j0_15" to="e3" fromLane="0" toLane="1" dir="s" state="M"/>
    <connection from=":j0_16" to="e2" fromLane="0" toLane="0" dir="l" state="M"/>
    <connection from=":j0_17" to="e2" fromLane="0" toLane="1" dir="l" state="M"/>
    <connection from=":j0_18" to="-e1" fromLane="0" toLane="0" dir="r" state="M"/>
    <connection from=":j0_19" to="e4" fromLane="0" toLane="0" dir="s" state="M"/>
    <connection from=":j0_20" to="-e1" fromLane="0" toLane="1" via=":j0_27_0" dir="r" state="m"/>
    <connection from=":j0_27" to="-e1" fromLane="0" toLane="1" dir="r" state="M"/>
    <connection from=":j0_21" to="e4" fromLane="0" toLane="1" dir="s" state="M"/>
    <connection from=":j0_22" to="e3" fromLane="0" toLane="0" via=":j0_28_0" dir="l" state="m"/>
    <connection from=":j0_28" to="e3" fromLane="0" toLane="0" dir="l" state="M"/>
    <connection from=":j0_23" to="e3" fromLane="0" toLane="1" via=":j0_29_0" dir="l" state="m"/>
    <connection from=":j0_29" to="e3" fromLane="0" toLane="1" dir="l" state="M"/>
    <connection from=":n1_0" to="5" fromLane="0" toLane="0" dir="r" state="M"/>
    <connection from=":n1_1" to="5" fromLane="0" toLane="1" dir="r" state="M"/>
    <connection from=":n1_2" to="e1" fromLane="0" toLane="0" dir="r" state="M"/>
    <connection from=":n1_3" to="e1" fromLane="0" toLane="1" dir="r" state="M"/>
    <connection from=":n1_4" to="5" fromLane="0" toLane="1" dir="r" state="M"/>
    <connection from=":n2_0" to="6" fromLane="0" toLane="0" dir="r" state="M"/>
    <connection from=":n2_1" to="6" fromLane="0" toLane="1" dir="r" state="M"/>
    <connection from=":n2_2" to="-e2" fromLane="0" toLane="0" dir="r" state="M"/>
    <connection from=":n2_3" to="-e2" fromLane="0" toLane="1" dir="r" state="M"/>
    <connection from=":n2_4" to="6" fromLane="0" toLane="1" dir="R" state="M"/>
    <connection from=":n3_0" to="7" fromLane="0" toLane="0" dir="r" state="M"/>
    <connection from=":n3_1" to="7" fromLane="0" toLane="1" dir="r" state="M"/>
    <connection from=":n3_2" to="-e3" fromLane="0" toLane="0" dir="r" state="M"/>
    <connection from=":n3_3" to="-e3" fromLane="0" toLane="1" dir="r" state="M"/>
    <connection from=":n3_4" to="7" fromLane="0" toLane="1" dir="r" state="M"/>
    <connection from=":n4_0" to="-e4" fromLane="0" toLane="0" dir="r" state="M"/>
    <connection from=":n4_1" to="-e4" fromLane="0" toLane="1" dir="r" state="M"/>
    <connection from=":n4_2" to="8" fromLane="0" toLane="1" dir="R" state="M"/>
    <connection from=":n4_3" to="8" fromLane="0" toLane="0" dir="r" state="M"/>
    <connection from=":n4_4" to="8" fromLane="0" toLane="1" dir="r" state="M"/>

</net>
