<?xml version="1.0" encoding="UTF-8"?>

<!-- generated on 11/23/20 12:26:32 by Eclipse SUMO netedit Version 1.7.0
<configuration xmlns:xsi="http://www.w3.org/2001/XMLSchema-instance" xsi:noNamespaceSchemaLocation="http://sumo.dlr.de/xsd/netconvertConfiguration.xsd">

    <output>
        <output-file value="C:\Users\Sandrus\Documents\Research\SUMO\SUMO_DEMOS\TrafficLights\traffic.net.xml"/>
    </output>

    <processing>
        <offset.disable-normalization value="true"/>
    </processing>

    <junctions>
        <no-turnarounds value="true"/>
    </junctions>

    <netedit>
        <route-files value="C:\Users\Sandrus\Documents\Research\SUMO\SUMO_DEMOS\TrafficLights\trafficL.rou.xml"/>
    </netedit>

    <report>
        <aggregate-warnings value="5"/>
    </report>

</configuration>
-->

<routes xmlns:xsi="http://www.w3.org/2001/XMLSchema-instance" xsi:noNamespaceSchemaLocation="http://sumo.dlr.de/xsd/routes_file.xsd">
    <vType id="car" minGap="3.00" maxSpeed="60.00" accel="3"/>
    <vType id="emergency" length="8.00" maxSpeed="80.00" vClass="ignoring" guiShape="emergency" accel="4" decel="6.5"/>

    <route id="route_0" edges="e1 e2 e6 -e3 -e4 e8 e5 -e2 e3 e7 e8 e1 e4 e8 e5" />



    <vehicle id="0" type="car" route="route_0" depart="0" />
    <vehicle id="2" type="car" route="route_0" depart="5" />
    <vehicle id="3" type="car" route="route_0" depart="10" />
    <vehicle id="4" type="car" route="route_0" depart="15" />
    <vehicle id="1" type="emergency" route="route_0" depart="17" />


</routes>
