 <routes>
        <vType id="eVehicle" vClass="evehicle" guiShape="evehicle" color="green"/>
        <vType id="normalVehicle" vClass="passenger" guiShape="passenger" color="0,0,128"/>
        <vType id="authority" vClass="authority" guiShape="passenger" color="red" />

        <trip depart="3" from="-D" to="B" color="yellow" type="normalVehicle" id="veh0"/>
        <trip depart="7" from="-F" to="H" color="yellow" type="eVehicle" id="veh1"/>
        <trip depart="7" from="-F" to="H" color="yellow" type="normalVehicle" id="veh2"/>
        <trip depart="24" from="-H" to="F" color="yellow" type="eVehicle" id="veh3"/>
        <trip depart="34" from="-F" to="H" color="yellow" type="eVehicle" id="veh4"/>
        <trip depart="35" from="-F" to="H" color="yellow" type="normalVehicle" id="veh5"/>
        <trip depart="38" from="-E" to="G" color="yellow" type="eVehicle" id="veh6"/>
        <trip depart="39" from="-B" to="D" color="yellow" type="normalVehicle" id="veh7"/>
        <trip depart="66" from="-E" to="G" color="yellow" type="eVehicle" id="veh8"/>
        <trip depart="85" from="-A" to="C" color="yellow" type="normalVehicle" id="veh9"/>
        <trip depart="93" from="-A" to="C" color="yellow" type="eVehicle" id="veh10"/>
        <trip depart="103" from="-E" to="G" color="yellow" type="eVehicle" id="veh11"/>
        <trip depart="105" from="-B" to="D" color="yellow" type="normalVehicle" id="veh12"/>
        <trip depart="107" from="-B" to="D" color="yellow" type="normalVehicle" id="veh13"/>
        <trip depart="117" from="-C" to="A" color="yellow" type="eVehicle" id="veh14"/>
        <trip depart="122" from="-H" to="F" color="yellow" type="eVehicle" id="veh15"/>
        <trip depart="123" from="-G" to="E" color="yellow" type="normalVehicle" id="veh16"/>
        <trip depart="127" from="-B" to="D" color="yellow" type="normalVehicle" id="veh17"/>
        <trip depart="154" from="-A" to="C" color="yellow" type="eVehicle" id="veh18"/>
        <trip depart="166" from="-F" to="H" color="yellow" type="eVehicle" id="veh19"/>
        <trip depart="170" from="-G" to="E" color="yellow" type="normalVehicle" id="veh20"/>
        <trip depart="175" from="-D" to="B" color="yellow" type="normalVehicle" id="veh21"/>
        <trip depart="185" from="-C" to="A" color="yellow" type="normalVehicle" id="veh22"/>
        <trip depart="198" from="-D" to="B" color="yellow" type="normalVehicle" id="veh23"/>
        <trip depart="208" from="-C" to="A" color="yellow" type="eVehicle" id="veh24"/>
        <trip depart="218" from="-D" to="B" color="yellow" type="normalVehicle" id="veh25"/>
        <trip depart="222" from="-C" to="A" color="yellow" type="normalVehicle" id="veh26"/>
        <trip depart="226" from="-A" to="C" color="yellow" type="eVehicle" id="veh27"/>
        <trip depart="227" from="-C" to="A" color="yellow" type="eVehicle" id="veh28"/>
        <trip depart="244" from="-H" to="F" color="yellow" type="eVehicle" id="veh29"/>
        <trip depart="246" from="-E" to="G" color="yellow" type="eVehicle" id="veh30"/>
        <trip depart="265" from="-C" to="A" color="yellow" type="eVehicle" id="veh31"/>
        <trip depart="277" from="-G" to="E" color="yellow" type="eVehicle" id="veh32"/>
        <trip depart="282" from="-E" to="G" color="yellow" type="normalVehicle" id="veh33"/>
        <trip depart="285" from="-G" to="E" color="yellow" type="eVehicle" id="veh34"/>
        <trip depart="286" from="-H" to="F" color="yellow" type="eVehicle" id="veh35"/>
        <trip depart="293" from="-C" to="A" color="yellow" type="normalVehicle" id="veh36"/>
        <trip depart="313" from="-F" to="H" color="yellow" type="eVehicle" id="veh37"/>
        <trip depart="345" from="-E" to="G" color="yellow" type="normalVehicle" id="veh38"/>
        <trip depart="349" from="-G" to="E" color="yellow" type="eVehicle" id="veh39"/>
        <trip depart="351" from="-C" to="A" color="yellow" type="normalVehicle" id="veh40"/>
        <trip depart="365" from="-G" to="E" color="yellow" type="normalVehicle" id="veh41"/>
        <trip depart="378" from="-A" to="C" color="yellow" type="normalVehicle" id="veh42"/>
        <trip depart="390" from="-C" to="A" color="yellow" type="normalVehicle" id="veh43"/>
        <trip depart="410" from="-B" to="D" color="yellow" type="normalVehicle" id="veh44"/>
        <trip depart="420" from="-B" to="D" color="yellow" type="normalVehicle" id="veh45"/>
        <trip depart="422" from="-H" to="F" color="yellow" type="eVehicle" id="veh46"/>
        <trip depart="423" from="-A" to="C" color="yellow" type="eVehicle" id="veh47"/>
        <trip depart="462" from="-C" to="A" color="yellow" type="normalVehicle" id="veh48"/>
        <trip depart="472" from="-H" to="F" color="yellow" type="eVehicle" id="veh49"/>
        <trip depart="475" from="-H" to="F" color="yellow" type="normalVehicle" id="veh50"/>
        <trip depart="476" from="-H" to="F" color="yellow" type="eVehicle" id="veh51"/>
        <trip depart="482" from="-F" to="H" color="yellow" type="normalVehicle" id="veh52"/>
        <trip depart="489" from="-E" to="G" color="yellow" type="normalVehicle" id="veh53"/>
        <trip depart="496" from="-H" to="F" color="yellow" type="eVehicle" id="veh54"/>
        <trip depart="499" from="-C" to="A" color="yellow" type="eVehicle" id="veh55"/>
        <trip depart="500" from="-A" to="C" color="yellow" type="eVehicle" id="veh56"/>
        <trip depart="501" from="-C" to="A" color="yellow" type="normalVehicle" id="veh57"/>
        <trip depart="507" from="-A" to="C" color="yellow" type="eVehicle" id="veh58"/>
        <trip depart="510" from="-C" to="A" color="yellow" type="eVehicle" id="veh59"/>
        <trip depart="524" from="-E" to="G" color="yellow" type="eVehicle" id="veh60"/>
        <trip depart="531" from="-A" to="C" color="yellow" type="normalVehicle" id="veh61"/>
        <trip depart="544" from="-F" to="H" color="yellow" type="eVehicle" id="veh62"/>
        <trip depart="546" from="-C" to="A" color="yellow" type="eVehicle" id="veh63"/>
        <trip depart="550" from="-G" to="E" color="yellow" type="eVehicle" id="veh64"/>
        <trip depart="558" from="-B" to="D" color="yellow" type="normalVehicle" id="veh65"/>
        <trip depart="559" from="-F" to="H" color="yellow" type="normalVehicle" id="veh66"/>
        <trip depart="564" from="-H" to="F" color="yellow" type="eVehicle" id="veh67"/>
        <trip depart="565" from="-B" to="D" color="yellow" type="eVehicle" id="veh68"/>
        <trip depart="570" from="-D" to="B" color="yellow" type="eVehicle" id="veh69"/>
        <trip depart="599" from="-G" to="E" color="yellow" type="eVehicle" id="veh70"/>
        <trip depart="603" from="-E" to="G" color="yellow" type="normalVehicle" id="veh71"/>
        <trip depart="611" from="-D" to="B" color="yellow" type="eVehicle" id="veh72"/>
        <trip depart="612" from="-C" to="A" color="yellow" type="eVehicle" id="veh73"/>
        <trip depart="623" from="-F" to="H" color="yellow" type="eVehicle" id="veh74"/>
        <trip depart="627" from="-E" to="G" color="yellow" type="eVehicle" id="veh75"/>
        <trip depart="677" from="-G" to="E" color="yellow" type="eVehicle" id="veh76"/>
        <trip depart="696" from="-E" to="G" color="yellow" type="normalVehicle" id="veh77"/>
        <trip depart="705" from="-F" to="H" color="yellow" type="normalVehicle" id="veh78"/>
        <trip depart="707" from="-H" to="F" color="yellow" type="eVehicle" id="veh79"/>
        <trip depart="711" from="-B" to="D" color="yellow" type="normalVehicle" id="veh80"/>
        <trip depart="714" from="-E" to="G" color="yellow" type="eVehicle" id="veh81"/>
        <trip depart="722" from="-D" to="B" color="yellow" type="eVehicle" id="veh82"/>
        <trip depart="725" from="-A" to="C" color="yellow" type="eVehicle" id="veh83"/>
        <trip depart="742" from="-B" to="D" color="yellow" type="eVehicle" id="veh84"/>
        <trip depart="755" from="-E" to="G" color="yellow" type="eVehicle" id="veh85"/>
        <trip depart="775" from="-A" to="C" color="yellow" type="normalVehicle" id="veh86"/>
        <trip depart="812" from="-A" to="C" color="yellow" type="normalVehicle" id="veh87"/>
        <trip depart="832" from="-H" to="F" color="yellow" type="eVehicle" id="veh88"/>
        <trip depart="836" from="-F" to="H" color="yellow" type="normalVehicle" id="veh89"/>
        <trip depart="838" from="-H" to="F" color="yellow" type="eVehicle" id="veh90"/>
        <trip depart="846" from="-E" to="G" color="yellow" type="normalVehicle" id="veh91"/>
        <trip depart="855" from="-B" to="D" color="yellow" type="normalVehicle" id="veh92"/>
        <trip depart="862" from="-E" to="G" color="yellow" type="eVehicle" id="veh93"/>
        <trip depart="880" from="-H" to="F" color="yellow" type="normalVehicle" id="veh94"/>
        <trip depart="889" from="-F" to="H" color="yellow" type="eVehicle" id="veh95"/>
        <trip depart="891" from="-A" to="C" color="yellow" type="eVehicle" id="veh96"/>
        <trip depart="895" from="-C" to="A" color="yellow" type="eVehicle" id="veh97"/>
        <trip depart="897" from="-H" to="F" color="yellow" type="normalVehicle" id="veh98"/>
        <trip depart="929" from="-F" to="H" color="yellow" type="normalVehicle" id="veh99"/>
        <trip depart="930" from="-B" to="D" color="yellow" type="eVehicle" id="veh100"/>
        <trip depart="936" from="-B" to="D" color="yellow" type="eVehicle" id="veh101"/>
        <trip depart="948" from="-A" to="C" color="yellow" type="eVehicle" id="veh102"/>
        <trip depart="954" from="-E" to="G" color="yellow" type="normalVehicle" id="veh103"/>
        <trip depart="964" from="-D" to="B" color="yellow" type="normalVehicle" id="veh104"/>
        <trip depart="983" from="-D" to="B" color="yellow" type="normalVehicle" id="veh105"/>
        <trip depart="995" from="-C" to="A" color="yellow" type="eVehicle" id="veh106"/>
</routes>
