<additional>
    <e1Detector id="det_1_0" lane="e1_0" pos="-20" freq="300" file="det.out.xml" />
    <e1Detector id="det_1_1" lane="e1_1" pos="-20" freq="300" file="det.out.xml" />
    <e1Detector id="det_2_0" lane="-e2_0" pos="-20" freq="300" file="det.out.xml" />
    <e1Detector id="det_2_1" lane="-e2_1" pos="-20" freq="300" file="det.out.xml" />
    <e1Detector id="det_3_0" lane="-e3_0" pos="-20" freq="300" file="det.out.xml" />
    <e1Detector id="det_3_1" lane="-e3_1" pos="-20" freq="300" file="det.out.xml" />
    <e1Detector id="det_4_0" lane="-e4_0" pos="-20" freq="300" file="det.out.xml" />
    <e1Detector id="det_4_1" lane="-e4_1" pos="-20" freq="300" file="det.out.xml" />
</additional>