<?xml version="1.0" encoding="UTF-8"?>

<!-- generated on 02/07/21 13:57:06 by Eclipse SUMO netedit Version 1.7.0
<configuration xmlns:xsi="http://www.w3.org/2001/XMLSchema-instance" xsi:noNamespaceSchemaLocation="http://sumo.dlr.de/xsd/netconvertConfiguration.xsd">

    <input>
        <sumo-net-file value="case0.net.xml"/>
    </input>

    <output>
        <output-file value="case0.net.xml"/>
    </output>

    <processing>
        <geometry.min-radius.fix.railways value="false"/>
        <geometry.max-grade.fix value="false"/>
        <offset.disable-normalization value="true"/>
        <lefthand value="false"/>
    </processing>

    <junctions>
        <no-turnarounds value="true"/>
        <junctions.corner-detail value="5"/>
        <junctions.limit-turn-speed value="5.5"/>
        <rectangular-lane-cut value="false"/>
    </junctions>

    <pedestrian>
        <walkingareas value="false"/>
    </pedestrian>

    <report>
        <aggregate-warnings value="5"/>
    </report>

</configuration>
-->

<net version="1.6" junctionCornerDetail="5" limitTurnSpeed="5.50" xmlns:xsi="http://www.w3.org/2001/XMLSchema-instance" xsi:noNamespaceSchemaLocation="http://sumo.dlr.de/xsd/net_file.xsd">

    <location netOffset="0.00,0.00" convBoundary="-1750.00,-14000.00,14000.00,1750.00" origBoundary="-10000000000.00,-10000000000.00,10000000000.00,10000000000.00" projParameter="!"/>

    <edge id=":gneJ102_0" function="internal">
        <lane id=":gneJ102_0_0" index="0" speed="13.89" length="14.40" shape="-1.60,-3492.80 -1.60,-3507.20"/>
    </edge>
    <edge id=":gneJ102_1" function="internal">
        <lane id=":gneJ102_1_0" index="0" speed="8.00" length="5.93" shape="-1.60,-3492.80 -1.05,-3496.65 -0.00,-3498.40"/>
    </edge>
    <edge id=":gneJ102_6" function="internal">
        <lane id=":gneJ102_6_0" index="0" speed="8.00" length="8.26" shape="-0.00,-3498.40 0.60,-3499.40 3.35,-3501.05 7.20,-3501.60"/>
    </edge>
    <edge id=":gneJ102_2" function="internal">
        <lane id=":gneJ102_2_0" index="0" speed="6.51" length="9.03" shape="7.20,-3498.40 4.75,-3498.05 3.00,-3497.00 1.95,-3495.25 1.60,-3492.80"/>
    </edge>
    <edge id=":gneJ102_3" function="internal">
        <lane id=":gneJ102_3_0" index="0" speed="8.00" length="14.19" shape="7.20,-3498.40 3.35,-3498.95 0.60,-3500.60 -1.05,-3503.35 -1.60,-3507.20"/>
    </edge>
    <edge id=":gneJ102_4" function="internal">
        <lane id=":gneJ102_4_0" index="0" speed="6.51" length="9.03" shape="1.60,-3507.20 1.95,-3504.75 3.00,-3503.00 4.75,-3501.95 7.20,-3501.60"/>
    </edge>
    <edge id=":gneJ102_5" function="internal">
        <lane id=":gneJ102_5_0" index="0" speed="13.89" length="14.40" shape="1.60,-3507.20 1.60,-3492.80"/>
    </edge>
    <edge id=":gneJ103_0" function="internal">
        <lane id=":gneJ103_0_0" index="0" speed="6.51" length="9.03" shape="-1.60,-5242.80 -1.95,-5245.25 -3.00,-5247.00 -4.75,-5248.05 -7.20,-5248.40"/>
    </edge>
    <edge id=":gneJ103_1" function="internal">
        <lane id=":gneJ103_1_0" index="0" speed="13.89" length="14.40" shape="-1.60,-5242.80 -1.60,-5257.20"/>
    </edge>
    <edge id=":gneJ103_2" function="internal">
        <lane id=":gneJ103_2_0" index="0" speed="8.00" length="5.93" shape="-1.60,-5242.80 -1.05,-5246.65 -0.00,-5248.40"/>
    </edge>
    <edge id=":gneJ103_12" function="internal">
        <lane id=":gneJ103_12_0" index="0" speed="8.00" length="8.26" shape="-0.00,-5248.40 0.60,-5249.40 3.35,-5251.05 7.20,-5251.60"/>
    </edge>
    <edge id=":gneJ103_3" function="internal">
        <lane id=":gneJ103_3_0" index="0" speed="6.51" length="9.03" shape="7.20,-5248.40 4.75,-5248.05 3.00,-5247.00 1.95,-5245.25 1.60,-5242.80"/>
    </edge>
    <edge id=":gneJ103_4" function="internal">
        <lane id=":gneJ103_4_0" index="0" speed="13.89" length="14.40" shape="7.20,-5248.40 -7.20,-5248.40"/>
    </edge>
    <edge id=":gneJ103_5" function="internal">
        <lane id=":gneJ103_5_0" index="0" speed="8.00" length="14.19" shape="7.20,-5248.40 3.35,-5248.95 0.60,-5250.60 -1.05,-5253.35 -1.60,-5257.20"/>
    </edge>
    <edge id=":gneJ103_6" function="internal">
        <lane id=":gneJ103_6_0" index="0" speed="6.51" length="9.03" shape="1.60,-5257.20 1.95,-5254.75 3.00,-5253.00 4.75,-5251.95 7.20,-5251.60"/>
    </edge>
    <edge id=":gneJ103_7" function="internal">
        <lane id=":gneJ103_7_0" index="0" speed="13.89" length="14.40" shape="1.60,-5257.20 1.60,-5242.80"/>
    </edge>
    <edge id=":gneJ103_8" function="internal">
        <lane id=":gneJ103_8_0" index="0" speed="8.00" length="5.93" shape="1.60,-5257.20 1.05,-5253.35 0.00,-5251.60"/>
    </edge>
    <edge id=":gneJ103_13" function="internal">
        <lane id=":gneJ103_13_0" index="0" speed="8.00" length="8.26" shape="0.00,-5251.60 -0.60,-5250.60 -3.35,-5248.95 -7.20,-5248.40"/>
    </edge>
    <edge id=":gneJ103_9" function="internal">
        <lane id=":gneJ103_9_0" index="0" speed="6.51" length="9.03" shape="-7.20,-5251.60 -4.75,-5251.95 -3.00,-5253.00 -1.95,-5254.75 -1.60,-5257.20"/>
    </edge>
    <edge id=":gneJ103_10" function="internal">
        <lane id=":gneJ103_10_0" index="0" speed="13.89" length="14.40" shape="-7.20,-5251.60 7.20,-5251.60"/>
    </edge>
    <edge id=":gneJ103_11" function="internal">
        <lane id=":gneJ103_11_0" index="0" speed="8.00" length="14.19" shape="-7.20,-5251.60 -3.35,-5251.05 -0.60,-5249.40 1.05,-5246.65 1.60,-5242.80"/>
    </edge>
    <edge id=":gneJ104_0" function="internal">
        <lane id=":gneJ104_0_0" index="0" speed="6.51" length="9.03" shape="-1.60,-6992.80 -1.95,-6995.25 -3.00,-6997.00 -4.75,-6998.05 -7.20,-6998.40"/>
    </edge>
    <edge id=":gneJ104_1" function="internal">
        <lane id=":gneJ104_1_0" index="0" speed="13.89" length="14.40" shape="-1.60,-6992.80 -1.60,-7007.20"/>
    </edge>
    <edge id=":gneJ104_2" function="internal">
        <lane id=":gneJ104_2_0" index="0" speed="8.00" length="5.93" shape="-1.60,-6992.80 -1.05,-6996.65 -0.00,-6998.40"/>
    </edge>
    <edge id=":gneJ104_12" function="internal">
        <lane id=":gneJ104_12_0" index="0" speed="8.00" length="8.26" shape="-0.00,-6998.40 0.60,-6999.40 3.35,-7001.05 7.20,-7001.60"/>
    </edge>
    <edge id=":gneJ104_3" function="internal">
        <lane id=":gneJ104_3_0" index="0" speed="6.51" length="9.03" shape="7.20,-6998.40 4.75,-6998.05 3.00,-6997.00 1.95,-6995.25 1.60,-6992.80"/>
    </edge>
    <edge id=":gneJ104_4" function="internal">
        <lane id=":gneJ104_4_0" index="0" speed="13.89" length="14.40" shape="7.20,-6998.40 -7.20,-6998.40"/>
    </edge>
    <edge id=":gneJ104_5" function="internal">
        <lane id=":gneJ104_5_0" index="0" speed="8.00" length="14.19" shape="7.20,-6998.40 3.35,-6998.95 0.60,-7000.60 -1.05,-7003.35 -1.60,-7007.20"/>
    </edge>
    <edge id=":gneJ104_6" function="internal">
        <lane id=":gneJ104_6_0" index="0" speed="6.51" length="9.03" shape="1.60,-7007.20 1.95,-7004.75 3.00,-7003.00 4.75,-7001.95 7.20,-7001.60"/>
    </edge>
    <edge id=":gneJ104_7" function="internal">
        <lane id=":gneJ104_7_0" index="0" speed="13.89" length="14.40" shape="1.60,-7007.20 1.60,-6992.80"/>
    </edge>
    <edge id=":gneJ104_8" function="internal">
        <lane id=":gneJ104_8_0" index="0" speed="8.00" length="5.93" shape="1.60,-7007.20 1.05,-7003.35 0.00,-7001.60"/>
    </edge>
    <edge id=":gneJ104_13" function="internal">
        <lane id=":gneJ104_13_0" index="0" speed="8.00" length="8.26" shape="0.00,-7001.60 -0.60,-7000.60 -3.35,-6998.95 -7.20,-6998.40"/>
    </edge>
    <edge id=":gneJ104_9" function="internal">
        <lane id=":gneJ104_9_0" index="0" speed="6.51" length="9.03" shape="-7.20,-7001.60 -4.75,-7001.95 -3.00,-7003.00 -1.95,-7004.75 -1.60,-7007.20"/>
    </edge>
    <edge id=":gneJ104_10" function="internal">
        <lane id=":gneJ104_10_0" index="0" speed="13.89" length="14.40" shape="-7.20,-7001.60 7.20,-7001.60"/>
    </edge>
    <edge id=":gneJ104_11" function="internal">
        <lane id=":gneJ104_11_0" index="0" speed="8.00" length="14.19" shape="-7.20,-7001.60 -3.35,-7001.05 -0.60,-6999.40 1.05,-6996.65 1.60,-6992.80"/>
    </edge>
    <edge id=":gneJ105_0" function="internal">
        <lane id=":gneJ105_0_0" index="0" speed="13.89" length="14.40" shape="-1.60,-8742.80 -1.60,-8757.20"/>
    </edge>
    <edge id=":gneJ105_1" function="internal">
        <lane id=":gneJ105_1_0" index="0" speed="8.00" length="5.93" shape="-1.60,-8742.80 -1.05,-8746.65 -0.00,-8748.40"/>
    </edge>
    <edge id=":gneJ105_6" function="internal">
        <lane id=":gneJ105_6_0" index="0" speed="8.00" length="8.26" shape="-0.00,-8748.40 0.60,-8749.40 3.35,-8751.05 7.20,-8751.60"/>
    </edge>
    <edge id=":gneJ105_2" function="internal">
        <lane id=":gneJ105_2_0" index="0" speed="6.51" length="9.03" shape="7.20,-8748.40 4.75,-8748.05 3.00,-8747.00 1.95,-8745.25 1.60,-8742.80"/>
    </edge>
    <edge id=":gneJ105_3" function="internal">
        <lane id=":gneJ105_3_0" index="0" speed="8.00" length="14.19" shape="7.20,-8748.40 3.35,-8748.95 0.60,-8750.60 -1.05,-8753.35 -1.60,-8757.20"/>
    </edge>
    <edge id=":gneJ105_4" function="internal">
        <lane id=":gneJ105_4_0" index="0" speed="6.51" length="9.03" shape="1.60,-8757.20 1.95,-8754.75 3.00,-8753.00 4.75,-8751.95 7.20,-8751.60"/>
    </edge>
    <edge id=":gneJ105_5" function="internal">
        <lane id=":gneJ105_5_0" index="0" speed="13.89" length="14.40" shape="1.60,-8757.20 1.60,-8742.80"/>
    </edge>
    <edge id=":gneJ106_0" function="internal">
        <lane id=":gneJ106_0_0" index="0" speed="13.89" length="14.40" shape="-1.60,-10492.80 -1.60,-10507.20"/>
    </edge>
    <edge id=":gneJ106_1" function="internal">
        <lane id=":gneJ106_1_0" index="0" speed="8.00" length="5.93" shape="-1.60,-10492.80 -1.05,-10496.65 -0.00,-10498.40"/>
    </edge>
    <edge id=":gneJ106_6" function="internal">
        <lane id=":gneJ106_6_0" index="0" speed="8.00" length="8.26" shape="-0.00,-10498.40 0.60,-10499.40 3.35,-10501.05 7.20,-10501.60"/>
    </edge>
    <edge id=":gneJ106_2" function="internal">
        <lane id=":gneJ106_2_0" index="0" speed="6.51" length="9.03" shape="7.20,-10498.40 4.75,-10498.05 3.00,-10497.00 1.95,-10495.25 1.60,-10492.80"/>
    </edge>
    <edge id=":gneJ106_3" function="internal">
        <lane id=":gneJ106_3_0" index="0" speed="8.00" length="14.19" shape="7.20,-10498.40 3.35,-10498.95 0.60,-10500.60 -1.05,-10503.35 -1.60,-10507.20"/>
    </edge>
    <edge id=":gneJ106_4" function="internal">
        <lane id=":gneJ106_4_0" index="0" speed="6.51" length="9.03" shape="1.60,-10507.20 1.95,-10504.75 3.00,-10503.00 4.75,-10501.95 7.20,-10501.60"/>
    </edge>
    <edge id=":gneJ106_5" function="internal">
        <lane id=":gneJ106_5_0" index="0" speed="13.89" length="14.40" shape="1.60,-10507.20 1.60,-10492.80"/>
    </edge>
    <edge id=":gneJ107_0" function="internal">
        <lane id=":gneJ107_0_0" index="0" speed="6.08" length="7.74" shape="-1.60,-12246.80 -1.30,-12248.90 -0.40,-12250.40 1.10,-12251.30 3.20,-12251.60"/>
    </edge>
    <edge id=":gneJ107_1" function="internal">
        <lane id=":gneJ107_1_0" index="0" speed="3.90" length="2.58" shape="3.20,-12248.40 2.50,-12248.30 2.00,-12248.00 1.70,-12247.50 1.60,-12246.80"/>
    </edge>
    <edge id=":gneJ117_0" function="internal">
        <lane id=":gneJ117_0_0" index="0" speed="6.51" length="9.03" shape="1748.40,-3492.80 1748.05,-3495.25 1747.00,-3497.00 1745.25,-3498.05 1742.80,-3498.40"/>
    </edge>
    <edge id=":gneJ117_1" function="internal">
        <lane id=":gneJ117_1_0" index="0" speed="13.89" length="14.40" shape="1748.40,-3492.80 1748.40,-3507.20"/>
    </edge>
    <edge id=":gneJ117_2" function="internal">
        <lane id=":gneJ117_2_0" index="0" speed="8.00" length="5.93" shape="1748.40,-3492.80 1748.95,-3496.65 1750.00,-3498.40"/>
    </edge>
    <edge id=":gneJ117_12" function="internal">
        <lane id=":gneJ117_12_0" index="0" speed="8.00" length="8.26" shape="1750.00,-3498.40 1750.60,-3499.40 1753.35,-3501.05 1757.20,-3501.60"/>
    </edge>
    <edge id=":gneJ117_3" function="internal">
        <lane id=":gneJ117_3_0" index="0" speed="6.51" length="9.03" shape="1757.20,-3498.40 1754.75,-3498.05 1753.00,-3497.00 1751.95,-3495.25 1751.60,-3492.80"/>
    </edge>
    <edge id=":gneJ117_4" function="internal">
        <lane id=":gneJ117_4_0" index="0" speed="13.89" length="14.40" shape="1757.20,-3498.40 1742.80,-3498.40"/>
    </edge>
    <edge id=":gneJ117_5" function="internal">
        <lane id=":gneJ117_5_0" index="0" speed="8.00" length="14.19" shape="1757.20,-3498.40 1753.35,-3498.95 1750.60,-3500.60 1748.95,-3503.35 1748.40,-3507.20"/>
    </edge>
    <edge id=":gneJ117_6" function="internal">
        <lane id=":gneJ117_6_0" index="0" speed="6.51" length="9.03" shape="1751.60,-3507.20 1751.95,-3504.75 1753.00,-3503.00 1754.75,-3501.95 1757.20,-3501.60"/>
    </edge>
    <edge id=":gneJ117_7" function="internal">
        <lane id=":gneJ117_7_0" index="0" speed="13.89" length="14.40" shape="1751.60,-3507.20 1751.60,-3492.80"/>
    </edge>
    <edge id=":gneJ117_8" function="internal">
        <lane id=":gneJ117_8_0" index="0" speed="8.00" length="5.93" shape="1751.60,-3507.20 1751.05,-3503.35 1750.00,-3501.60"/>
    </edge>
    <edge id=":gneJ117_13" function="internal">
        <lane id=":gneJ117_13_0" index="0" speed="8.00" length="8.26" shape="1750.00,-3501.60 1749.40,-3500.60 1746.65,-3498.95 1742.80,-3498.40"/>
    </edge>
    <edge id=":gneJ117_9" function="internal">
        <lane id=":gneJ117_9_0" index="0" speed="6.51" length="9.03" shape="1742.80,-3501.60 1745.25,-3501.95 1747.00,-3503.00 1748.05,-3504.75 1748.40,-3507.20"/>
    </edge>
    <edge id=":gneJ117_10" function="internal">
        <lane id=":gneJ117_10_0" index="0" speed="13.89" length="14.40" shape="1742.80,-3501.60 1757.20,-3501.60"/>
    </edge>
    <edge id=":gneJ117_11" function="internal">
        <lane id=":gneJ117_11_0" index="0" speed="8.00" length="14.19" shape="1742.80,-3501.60 1746.65,-3501.05 1749.40,-3499.40 1751.05,-3496.65 1751.60,-3492.80"/>
    </edge>
    <edge id=":gneJ118_0" function="internal">
        <lane id=":gneJ118_0_0" index="0" speed="6.51" length="9.03" shape="1748.40,-5242.80 1748.05,-5245.25 1747.00,-5247.00 1745.25,-5248.05 1742.80,-5248.40"/>
    </edge>
    <edge id=":gneJ118_1" function="internal">
        <lane id=":gneJ118_1_0" index="0" speed="13.89" length="14.40" shape="1748.40,-5242.80 1748.40,-5257.20"/>
    </edge>
    <edge id=":gneJ118_2" function="internal">
        <lane id=":gneJ118_2_0" index="0" speed="8.00" length="5.93" shape="1748.40,-5242.80 1748.95,-5246.65 1750.00,-5248.40"/>
    </edge>
    <edge id=":gneJ118_12" function="internal">
        <lane id=":gneJ118_12_0" index="0" speed="8.00" length="8.26" shape="1750.00,-5248.40 1750.60,-5249.40 1753.35,-5251.05 1757.20,-5251.60"/>
    </edge>
    <edge id=":gneJ118_3" function="internal">
        <lane id=":gneJ118_3_0" index="0" speed="6.51" length="9.03" shape="1757.20,-5248.40 1754.75,-5248.05 1753.00,-5247.00 1751.95,-5245.25 1751.60,-5242.80"/>
    </edge>
    <edge id=":gneJ118_4" function="internal">
        <lane id=":gneJ118_4_0" index="0" speed="13.89" length="14.40" shape="1757.20,-5248.40 1742.80,-5248.40"/>
    </edge>
    <edge id=":gneJ118_5" function="internal">
        <lane id=":gneJ118_5_0" index="0" speed="8.00" length="14.19" shape="1757.20,-5248.40 1753.35,-5248.95 1750.60,-5250.60 1748.95,-5253.35 1748.40,-5257.20"/>
    </edge>
    <edge id=":gneJ118_6" function="internal">
        <lane id=":gneJ118_6_0" index="0" speed="6.51" length="9.03" shape="1751.60,-5257.20 1751.95,-5254.75 1753.00,-5253.00 1754.75,-5251.95 1757.20,-5251.60"/>
    </edge>
    <edge id=":gneJ118_7" function="internal">
        <lane id=":gneJ118_7_0" index="0" speed="13.89" length="14.40" shape="1751.60,-5257.20 1751.60,-5242.80"/>
    </edge>
    <edge id=":gneJ118_8" function="internal">
        <lane id=":gneJ118_8_0" index="0" speed="8.00" length="5.93" shape="1751.60,-5257.20 1751.05,-5253.35 1750.00,-5251.60"/>
    </edge>
    <edge id=":gneJ118_13" function="internal">
        <lane id=":gneJ118_13_0" index="0" speed="8.00" length="8.26" shape="1750.00,-5251.60 1749.40,-5250.60 1746.65,-5248.95 1742.80,-5248.40"/>
    </edge>
    <edge id=":gneJ118_9" function="internal">
        <lane id=":gneJ118_9_0" index="0" speed="6.51" length="9.03" shape="1742.80,-5251.60 1745.25,-5251.95 1747.00,-5253.00 1748.05,-5254.75 1748.40,-5257.20"/>
    </edge>
    <edge id=":gneJ118_10" function="internal">
        <lane id=":gneJ118_10_0" index="0" speed="13.89" length="14.40" shape="1742.80,-5251.60 1757.20,-5251.60"/>
    </edge>
    <edge id=":gneJ118_11" function="internal">
        <lane id=":gneJ118_11_0" index="0" speed="8.00" length="14.19" shape="1742.80,-5251.60 1746.65,-5251.05 1749.40,-5249.40 1751.05,-5246.65 1751.60,-5242.80"/>
    </edge>
    <edge id=":gneJ119_0" function="internal">
        <lane id=":gneJ119_0_0" index="0" speed="6.51" length="9.03" shape="1748.40,-6992.80 1748.05,-6995.25 1747.00,-6997.00 1745.25,-6998.05 1742.80,-6998.40"/>
    </edge>
    <edge id=":gneJ119_1" function="internal">
        <lane id=":gneJ119_1_0" index="0" speed="13.89" length="14.40" shape="1748.40,-6992.80 1748.40,-7007.20"/>
    </edge>
    <edge id=":gneJ119_2" function="internal">
        <lane id=":gneJ119_2_0" index="0" speed="8.00" length="5.93" shape="1748.40,-6992.80 1748.95,-6996.65 1750.00,-6998.40"/>
    </edge>
    <edge id=":gneJ119_12" function="internal">
        <lane id=":gneJ119_12_0" index="0" speed="8.00" length="8.26" shape="1750.00,-6998.40 1750.60,-6999.40 1753.35,-7001.05 1757.20,-7001.60"/>
    </edge>
    <edge id=":gneJ119_3" function="internal">
        <lane id=":gneJ119_3_0" index="0" speed="6.51" length="9.03" shape="1757.20,-6998.40 1754.75,-6998.05 1753.00,-6997.00 1751.95,-6995.25 1751.60,-6992.80"/>
    </edge>
    <edge id=":gneJ119_4" function="internal">
        <lane id=":gneJ119_4_0" index="0" speed="13.89" length="14.40" shape="1757.20,-6998.40 1742.80,-6998.40"/>
    </edge>
    <edge id=":gneJ119_5" function="internal">
        <lane id=":gneJ119_5_0" index="0" speed="8.00" length="14.19" shape="1757.20,-6998.40 1753.35,-6998.95 1750.60,-7000.60 1748.95,-7003.35 1748.40,-7007.20"/>
    </edge>
    <edge id=":gneJ119_6" function="internal">
        <lane id=":gneJ119_6_0" index="0" speed="6.51" length="9.03" shape="1751.60,-7007.20 1751.95,-7004.75 1753.00,-7003.00 1754.75,-7001.95 1757.20,-7001.60"/>
    </edge>
    <edge id=":gneJ119_7" function="internal">
        <lane id=":gneJ119_7_0" index="0" speed="13.89" length="14.40" shape="1751.60,-7007.20 1751.60,-6992.80"/>
    </edge>
    <edge id=":gneJ119_8" function="internal">
        <lane id=":gneJ119_8_0" index="0" speed="8.00" length="5.93" shape="1751.60,-7007.20 1751.05,-7003.35 1750.00,-7001.60"/>
    </edge>
    <edge id=":gneJ119_13" function="internal">
        <lane id=":gneJ119_13_0" index="0" speed="8.00" length="8.26" shape="1750.00,-7001.60 1749.40,-7000.60 1746.65,-6998.95 1742.80,-6998.40"/>
    </edge>
    <edge id=":gneJ119_9" function="internal">
        <lane id=":gneJ119_9_0" index="0" speed="6.51" length="9.03" shape="1742.80,-7001.60 1745.25,-7001.95 1747.00,-7003.00 1748.05,-7004.75 1748.40,-7007.20"/>
    </edge>
    <edge id=":gneJ119_10" function="internal">
        <lane id=":gneJ119_10_0" index="0" speed="13.89" length="14.40" shape="1742.80,-7001.60 1757.20,-7001.60"/>
    </edge>
    <edge id=":gneJ119_11" function="internal">
        <lane id=":gneJ119_11_0" index="0" speed="8.00" length="14.19" shape="1742.80,-7001.60 1746.65,-7001.05 1749.40,-6999.40 1751.05,-6996.65 1751.60,-6992.80"/>
    </edge>
    <edge id=":gneJ120_0" function="internal">
        <lane id=":gneJ120_0_0" index="0" speed="6.51" length="9.03" shape="1748.40,-8742.80 1748.05,-8745.25 1747.00,-8747.00 1745.25,-8748.05 1742.80,-8748.40"/>
    </edge>
    <edge id=":gneJ120_1" function="internal">
        <lane id=":gneJ120_1_0" index="0" speed="13.89" length="14.40" shape="1748.40,-8742.80 1748.40,-8757.20"/>
    </edge>
    <edge id=":gneJ120_2" function="internal">
        <lane id=":gneJ120_2_0" index="0" speed="8.00" length="5.93" shape="1748.40,-8742.80 1748.95,-8746.65 1750.00,-8748.40"/>
    </edge>
    <edge id=":gneJ120_12" function="internal">
        <lane id=":gneJ120_12_0" index="0" speed="8.00" length="8.26" shape="1750.00,-8748.40 1750.60,-8749.40 1753.35,-8751.05 1757.20,-8751.60"/>
    </edge>
    <edge id=":gneJ120_3" function="internal">
        <lane id=":gneJ120_3_0" index="0" speed="6.51" length="9.03" shape="1757.20,-8748.40 1754.75,-8748.05 1753.00,-8747.00 1751.95,-8745.25 1751.60,-8742.80"/>
    </edge>
    <edge id=":gneJ120_4" function="internal">
        <lane id=":gneJ120_4_0" index="0" speed="13.89" length="14.40" shape="1757.20,-8748.40 1742.80,-8748.40"/>
    </edge>
    <edge id=":gneJ120_5" function="internal">
        <lane id=":gneJ120_5_0" index="0" speed="8.00" length="14.19" shape="1757.20,-8748.40 1753.35,-8748.95 1750.60,-8750.60 1748.95,-8753.35 1748.40,-8757.20"/>
    </edge>
    <edge id=":gneJ120_6" function="internal">
        <lane id=":gneJ120_6_0" index="0" speed="6.51" length="9.03" shape="1751.60,-8757.20 1751.95,-8754.75 1753.00,-8753.00 1754.75,-8751.95 1757.20,-8751.60"/>
    </edge>
    <edge id=":gneJ120_7" function="internal">
        <lane id=":gneJ120_7_0" index="0" speed="13.89" length="14.40" shape="1751.60,-8757.20 1751.60,-8742.80"/>
    </edge>
    <edge id=":gneJ120_8" function="internal">
        <lane id=":gneJ120_8_0" index="0" speed="8.00" length="5.93" shape="1751.60,-8757.20 1751.05,-8753.35 1750.00,-8751.60"/>
    </edge>
    <edge id=":gneJ120_13" function="internal">
        <lane id=":gneJ120_13_0" index="0" speed="8.00" length="8.26" shape="1750.00,-8751.60 1749.40,-8750.60 1746.65,-8748.95 1742.80,-8748.40"/>
    </edge>
    <edge id=":gneJ120_9" function="internal">
        <lane id=":gneJ120_9_0" index="0" speed="6.51" length="9.03" shape="1742.80,-8751.60 1745.25,-8751.95 1747.00,-8753.00 1748.05,-8754.75 1748.40,-8757.20"/>
    </edge>
    <edge id=":gneJ120_10" function="internal">
        <lane id=":gneJ120_10_0" index="0" speed="13.89" length="14.40" shape="1742.80,-8751.60 1757.20,-8751.60"/>
    </edge>
    <edge id=":gneJ120_11" function="internal">
        <lane id=":gneJ120_11_0" index="0" speed="8.00" length="14.19" shape="1742.80,-8751.60 1746.65,-8751.05 1749.40,-8749.40 1751.05,-8746.65 1751.60,-8742.80"/>
    </edge>
    <edge id=":gneJ121_0" function="internal">
        <lane id=":gneJ121_0_0" index="0" speed="6.51" length="9.03" shape="1748.40,-10492.80 1748.05,-10495.25 1747.00,-10497.00 1745.25,-10498.05 1742.80,-10498.40"/>
    </edge>
    <edge id=":gneJ121_1" function="internal">
        <lane id=":gneJ121_1_0" index="0" speed="13.89" length="14.40" shape="1748.40,-10492.80 1748.40,-10507.20"/>
    </edge>
    <edge id=":gneJ121_2" function="internal">
        <lane id=":gneJ121_2_0" index="0" speed="8.00" length="5.93" shape="1748.40,-10492.80 1748.95,-10496.65 1750.00,-10498.40"/>
    </edge>
    <edge id=":gneJ121_12" function="internal">
        <lane id=":gneJ121_12_0" index="0" speed="8.00" length="8.26" shape="1750.00,-10498.40 1750.60,-10499.40 1753.35,-10501.05 1757.20,-10501.60"/>
    </edge>
    <edge id=":gneJ121_3" function="internal">
        <lane id=":gneJ121_3_0" index="0" speed="6.51" length="9.03" shape="1757.20,-10498.40 1754.75,-10498.05 1753.00,-10497.00 1751.95,-10495.25 1751.60,-10492.80"/>
    </edge>
    <edge id=":gneJ121_4" function="internal">
        <lane id=":gneJ121_4_0" index="0" speed="13.89" length="14.40" shape="1757.20,-10498.40 1742.80,-10498.40"/>
    </edge>
    <edge id=":gneJ121_5" function="internal">
        <lane id=":gneJ121_5_0" index="0" speed="8.00" length="14.19" shape="1757.20,-10498.40 1753.35,-10498.95 1750.60,-10500.60 1748.95,-10503.35 1748.40,-10507.20"/>
    </edge>
    <edge id=":gneJ121_6" function="internal">
        <lane id=":gneJ121_6_0" index="0" speed="6.51" length="9.03" shape="1751.60,-10507.20 1751.95,-10504.75 1753.00,-10503.00 1754.75,-10501.95 1757.20,-10501.60"/>
    </edge>
    <edge id=":gneJ121_7" function="internal">
        <lane id=":gneJ121_7_0" index="0" speed="13.89" length="14.40" shape="1751.60,-10507.20 1751.60,-10492.80"/>
    </edge>
    <edge id=":gneJ121_8" function="internal">
        <lane id=":gneJ121_8_0" index="0" speed="8.00" length="5.93" shape="1751.60,-10507.20 1751.05,-10503.35 1750.00,-10501.60"/>
    </edge>
    <edge id=":gneJ121_13" function="internal">
        <lane id=":gneJ121_13_0" index="0" speed="8.00" length="8.26" shape="1750.00,-10501.60 1749.40,-10500.60 1746.65,-10498.95 1742.80,-10498.40"/>
    </edge>
    <edge id=":gneJ121_9" function="internal">
        <lane id=":gneJ121_9_0" index="0" speed="6.51" length="9.03" shape="1742.80,-10501.60 1745.25,-10501.95 1747.00,-10503.00 1748.05,-10504.75 1748.40,-10507.20"/>
    </edge>
    <edge id=":gneJ121_10" function="internal">
        <lane id=":gneJ121_10_0" index="0" speed="13.89" length="14.40" shape="1742.80,-10501.60 1757.20,-10501.60"/>
    </edge>
    <edge id=":gneJ121_11" function="internal">
        <lane id=":gneJ121_11_0" index="0" speed="8.00" length="14.19" shape="1742.80,-10501.60 1746.65,-10501.05 1749.40,-10499.40 1751.05,-10496.65 1751.60,-10492.80"/>
    </edge>
    <edge id=":gneJ122_0" function="internal">
        <lane id=":gneJ122_0_0" index="0" speed="6.51" length="9.03" shape="1748.40,-12242.80 1748.05,-12245.25 1747.00,-12247.00 1745.25,-12248.05 1742.80,-12248.40"/>
    </edge>
    <edge id=":gneJ122_1" function="internal">
        <lane id=":gneJ122_1_0" index="0" speed="8.00" length="14.19" shape="1748.40,-12242.80 1748.95,-12246.65 1750.60,-12249.40 1753.35,-12251.05 1757.20,-12251.60"/>
    </edge>
    <edge id=":gneJ122_2" function="internal">
        <lane id=":gneJ122_2_0" index="0" speed="6.51" length="9.03" shape="1757.20,-12248.40 1754.75,-12248.05 1753.00,-12247.00 1751.95,-12245.25 1751.60,-12242.80"/>
    </edge>
    <edge id=":gneJ122_3" function="internal">
        <lane id=":gneJ122_3_0" index="0" speed="13.89" length="14.40" shape="1757.20,-12248.40 1742.80,-12248.40"/>
    </edge>
    <edge id=":gneJ122_4" function="internal">
        <lane id=":gneJ122_4_0" index="0" speed="13.89" length="14.40" shape="1742.80,-12251.60 1757.20,-12251.60"/>
    </edge>
    <edge id=":gneJ122_5" function="internal">
        <lane id=":gneJ122_5_0" index="0" speed="8.00" length="5.93" shape="1742.80,-12251.60 1746.65,-12251.05 1748.40,-12250.00"/>
    </edge>
    <edge id=":gneJ122_6" function="internal">
        <lane id=":gneJ122_6_0" index="0" speed="8.00" length="8.26" shape="1748.40,-12250.00 1749.40,-12249.40 1751.05,-12246.65 1751.60,-12242.80"/>
    </edge>
    <edge id=":gneJ128_0" function="internal">
        <lane id=":gneJ128_0_0" index="0" speed="6.51" length="9.03" shape="3498.40,-3492.80 3498.05,-3495.25 3497.00,-3497.00 3495.25,-3498.05 3492.80,-3498.40"/>
    </edge>
    <edge id=":gneJ128_1" function="internal">
        <lane id=":gneJ128_1_0" index="0" speed="13.89" length="14.40" shape="3498.40,-3492.80 3498.40,-3507.20"/>
    </edge>
    <edge id=":gneJ128_2" function="internal">
        <lane id=":gneJ128_2_0" index="0" speed="8.00" length="5.93" shape="3498.40,-3492.80 3498.95,-3496.65 3500.00,-3498.40"/>
    </edge>
    <edge id=":gneJ128_12" function="internal">
        <lane id=":gneJ128_12_0" index="0" speed="8.00" length="8.26" shape="3500.00,-3498.40 3500.60,-3499.40 3503.35,-3501.05 3507.20,-3501.60"/>
    </edge>
    <edge id=":gneJ128_3" function="internal">
        <lane id=":gneJ128_3_0" index="0" speed="6.51" length="9.03" shape="3507.20,-3498.40 3504.75,-3498.05 3503.00,-3497.00 3501.95,-3495.25 3501.60,-3492.80"/>
    </edge>
    <edge id=":gneJ128_4" function="internal">
        <lane id=":gneJ128_4_0" index="0" speed="13.89" length="14.40" shape="3507.20,-3498.40 3492.80,-3498.40"/>
    </edge>
    <edge id=":gneJ128_5" function="internal">
        <lane id=":gneJ128_5_0" index="0" speed="8.00" length="14.19" shape="3507.20,-3498.40 3503.35,-3498.95 3500.60,-3500.60 3498.95,-3503.35 3498.40,-3507.20"/>
    </edge>
    <edge id=":gneJ128_6" function="internal">
        <lane id=":gneJ128_6_0" index="0" speed="6.51" length="9.03" shape="3501.60,-3507.20 3501.95,-3504.75 3503.00,-3503.00 3504.75,-3501.95 3507.20,-3501.60"/>
    </edge>
    <edge id=":gneJ128_7" function="internal">
        <lane id=":gneJ128_7_0" index="0" speed="13.89" length="14.40" shape="3501.60,-3507.20 3501.60,-3492.80"/>
    </edge>
    <edge id=":gneJ128_8" function="internal">
        <lane id=":gneJ128_8_0" index="0" speed="8.00" length="5.93" shape="3501.60,-3507.20 3501.05,-3503.35 3500.00,-3501.60"/>
    </edge>
    <edge id=":gneJ128_13" function="internal">
        <lane id=":gneJ128_13_0" index="0" speed="8.00" length="8.26" shape="3500.00,-3501.60 3499.40,-3500.60 3496.65,-3498.95 3492.80,-3498.40"/>
    </edge>
    <edge id=":gneJ128_9" function="internal">
        <lane id=":gneJ128_9_0" index="0" speed="6.51" length="9.03" shape="3492.80,-3501.60 3495.25,-3501.95 3497.00,-3503.00 3498.05,-3504.75 3498.40,-3507.20"/>
    </edge>
    <edge id=":gneJ128_10" function="internal">
        <lane id=":gneJ128_10_0" index="0" speed="13.89" length="14.40" shape="3492.80,-3501.60 3507.20,-3501.60"/>
    </edge>
    <edge id=":gneJ128_11" function="internal">
        <lane id=":gneJ128_11_0" index="0" speed="8.00" length="14.19" shape="3492.80,-3501.60 3496.65,-3501.05 3499.40,-3499.40 3501.05,-3496.65 3501.60,-3492.80"/>
    </edge>
    <edge id=":gneJ131_0" function="internal">
        <lane id=":gneJ131_0_0" index="0" speed="6.51" length="9.03" shape="5248.40,-3492.80 5248.05,-3495.25 5247.00,-3497.00 5245.25,-3498.05 5242.80,-3498.40"/>