<?xml version="1.0" encoding="UTF-8"?>

<!-- generated on 10/05/20 18:27:35 by Eclipse SUMO netedit Version 1.7.0
<configuration xmlns:xsi="http://www.w3.org/2001/XMLSchema-instance" xsi:noNamespaceSchemaLocation="http://sumo.dlr.de/xsd/netconvertConfiguration.xsd">

    <input>
        <sumo-net-file value="C:\Users\Sandrus\Documents\Research\SUMO\SUMO_DEMOS\3SumoTutorial-QuickStart\quickstart.net.xml"/>
    </input>

    <output>
        <output-file value="C:\Users\Sandrus\Documents\Research\SUMO\SUMO_DEMOS\3SumoTutorial-QuickStart\quickstart.net.xml"/>
    </output>

    <processing>
        <geometry.min-radius.fix.railways value="false"/>
        <geometry.max-grade.fix value="false"/>
        <offset.disable-normalization value="true"/>
        <lefthand value="false"/>
    </processing>

    <junctions>
        <no-turnarounds value="true"/>
        <junctions.corner-detail value="5"/>
        <junctions.limit-turn-speed value="5.5"/>
        <rectangular-lane-cut value="false"/>
    </junctions>

    <pedestrian>
        <walkingareas value="false"/>
    </pedestrian>

    <report>
        <aggregate-warnings value="5"/>
    </report>

</configuration>
-->

<net version="1.6" junctionCornerDetail="5" limitTurnSpeed="5.50" xmlns:xsi="http://www.w3.org/2001/XMLSchema-instance" xsi:noNamespaceSchemaLocation="http://sumo.dlr.de/xsd/net_file.xsd">

    <location netOffset="0.00,0.00" convBoundary="-1000.00,0.00,3000.00,1000.00" origBoundary="-10000000000.00,-10000000000.00,10000000000.00,10000000000.00" projParameter="!"/>

    <edge id=":1_0" function="internal">
        <lane id=":1_0_0" index="0" speed="13.89" length="8.00" shape="4.00,1008.00 -4.00,1008.00"/>
        <lane id=":1_0_1" index="1" speed="13.89" length="8.00" shape="4.00,1004.80 -4.00,1004.80"/>
        <lane id=":1_0_2" index="2" speed="13.89" length="8.00" shape="4.00,1001.60 -4.00,1001.60"/>
    </edge>
    <edge id=":1_3" function="internal">
        <lane id=":1_3_0" index="0" speed="13.89" length="8.54" shape="-4.00,995.20 -1.54,994.70 0.00,993.60 1.54,992.50 4.00,992.00"/>
        <lane id=":1_3_1" index="1" speed="13.89" length="8.54" shape="-4.00,998.40 -1.54,997.90 -0.00,996.80 1.54,995.70 4.00,995.20"/>
        <lane id=":1_3_2" index="2" speed="13.89" length="8.54" shape="-4.00,998.40 4.00,998.40"/>
    </edge>
    <edge id=":2_0" function="internal">
        <lane id=":2_0_0" index="0" speed="13.89" length="8.00" shape="4.00,8.00 -4.00,8.00"/>
        <lane id=":2_0_1" index="1" speed="13.89" length="8.00" shape="4.00,4.80 -4.00,4.80"/>
        <lane id=":2_0_2" index="2" speed="13.89" length="8.00" shape="4.00,1.60 -4.00,1.60"/>
    </edge>
    <edge id=":2_3" function="internal">
        <lane id=":2_3_0" index="0" speed="13.89" length="8.54" shape="-4.00,-4.80 -1.54,-5.30 -0.00,-6.40 1.54,-7.50 4.00,-8.00"/>
        <lane id=":2_3_1" index="1" speed="13.89" length="8.54" shape="-4.00,-1.60 -1.54,-2.10 0.00,-3.20 1.54,-4.30 4.00,-4.80"/>
        <lane id=":2_3_2" index="2" speed="13.89" length="8.54" shape="-4.00,-1.60 4.00,-1.60"/>
    </edge>
    <edge id=":3_0" function="internal">
        <lane id=":3_0_0" index="0" speed="6.51" length="9.03" shape="992.00,13.60 991.65,11.15 990.60,9.40 988.85,8.35 986.40,8.00"/>
    </edge>
    <edge id=":3_1" function="internal">
        <lane id=":3_1_0" index="0" speed="11.36" length="29.67" shape="995.20,13.60 996.35,5.55 999.80,-0.20 1005.55,-3.65 1013.60,-4.80"/>
    </edge>
    <edge id=":3_2" function="internal">
        <lane id=":3_2_0" index="0" speed="10.36" length="24.51" shape="998.40,13.60 999.35,6.95 1002.20,2.20 1006.95,-0.65 1013.60,-1.60"/>
    </edge>
    <edge id=":3_3" function="internal">
        <lane id=":3_3_0" index="0" speed="6.51" length="9.03" shape="1013.60,8.00 1011.15,8.35 1009.40,9.40 1008.35,11.15 1008.00,13.60"/>
    </edge>
    <edge id=":3_4" function="internal">
        <lane id=":3_4_0" index="0" speed="13.89" length="27.20" shape="1013.60,8.00 986.40,8.00"/>
        <lane id=":3_4_1" index="1" speed="13.89" length="27.20" shape="1013.60,4.80 986.40,4.80"/>
        <lane id=":3_4_2" index="2" speed="13.89" length="27.20" shape="1013.60,1.60 986.40,1.60"/>
    </edge>
    <edge id=":3_7" function="internal">
        <lane id=":3_7_0" index="0" speed="13.89" length="27.20" shape="986.40,-8.00 1013.60,-8.00"/>
        <lane id=":3_7_1" index="1" speed="13.89" length="27.20" shape="986.40,-4.80 1013.60,-4.80"/>
        <lane id=":3_7_2" index="2" speed="13.89" length="27.20" shape="986.40,-1.60 1013.60,-1.60"/>
    </edge>
    <edge id=":3_10" function="internal">
        <lane id=":3_10_0" index="0" speed="10.88" length="9.57" shape="986.40,-1.60 994.45,-0.65 995.76,-0.00"/>
    </edge>
    <edge id=":3_11" function="internal">
        <lane id=":3_11_0" index="0" speed="10.36" length="7.98" shape="986.40,-1.60 993.05,-0.65 994.13,-0.00"/>
    </edge>
    <edge id=":3_12" function="internal">
        <lane id=":3_12_0" index="0" speed="10.88" length="17.57" shape="995.76,-0.00 1000.20,2.20 1003.65,6.95 1004.80,13.60"/>
    </edge>
    <edge id=":3_13" function="internal">
        <lane id=":3_13_0" index="0" speed="10.36" length="16.53" shape="994.13,-0.00 997.80,2.20 1000.65,6.95 1001.60,13.60"/>
    </edge>
    <edge id=":4_0" function="internal">
        <lane id=":4_0_0" index="0" speed="13.89" length="8.54" shape="2004.00,4.80 2001.54,5.30 2000.00,6.40 1998.46,7.50 1996.00,8.00"/>
        <lane id=":4_0_1" index="1" speed="13.89" length="8.54" shape="2004.00,1.60 2001.54,2.10 2000.00,3.20 1998.46,4.30 1996.00,4.80"/>
        <lane id=":4_0_2" index="2" speed="13.89" length="8.54" shape="2004.00,1.60 1996.00,1.60"/>
    </edge>
    <edge id=":4_3" function="internal">
        <lane id=":4_3_0" index="0" speed="13.89" length="8.00" shape="1996.00,-8.00 2004.00,-8.00"/>
        <lane id=":4_3_1" index="1" speed="13.89" length="8.00" shape="1996.00,-4.80 2004.00,-4.80"/>
        <lane id=":4_3_2" index="2" speed="13.89" length="8.00" shape="1996.00,-1.60 2004.00,-1.60"/>
    </edge>
    <edge id=":5_0" function="internal">
        <lane id=":5_0_0" index="0" speed="13.89" length="8.54" shape="2004.00,1004.80 2001.54,1005.30 2000.00,1006.40 1998.46,1007.50 1996.00,1008.00"/>
        <lane id=":5_0_1" index="1" speed="13.89" length="8.54" shape="2004.00,1001.60 2001.54,1002.10 2000.00,1003.20 1998.46,1004.30 1996.00,1004.80"/>
        <lane id=":5_0_2" index="2" speed="13.89" length="8.54" shape="2004.00,1001.60 1996.00,1001.60"/>
    </edge>
    <edge id=":5_3" function="internal">
        <lane id=":5_3_0" index="0" speed="13.89" length="8.00" shape="1996.00,992.00 2004.00,992.00"/>
        <lane id=":5_3_1" index="1" speed="13.89" length="8.00" shape="1996.00,995.20 2004.00,995.20"/>
        <lane id=":5_3_2" index="2" speed="13.89" length="8.00" shape="1996.00,998.40 2004.00,998.40"/>
    </edge>
    <edge id=":6_0" function="internal">
        <lane id=":6_0_0" index="0" speed="13.89" length="27.20" shape="1013.60,1008.00 986.40,1008.00"/>
        <lane id=":6_0_1" index="1" speed="13.89" length="27.20" shape="1013.60,1004.80 986.40,1004.80"/>
        <lane id=":6_0_2" index="2" speed="13.89" length="27.20" shape="1013.60,1001.60 986.40,1001.60"/>
    </edge>
    <edge id=":6_3" function="internal">
        <lane id=":6_3_0" index="0" speed="10.88" length="9.57" shape="1013.60,1001.60 1005.55,1000.65 1004.24,1000.00"/>
    </edge>
    <edge id=":6_4" function="internal">
        <lane id=":6_4_0" index="0" speed="10.36" length="7.98" shape="1013.60,1001.60 1006.95,1000.65 1005.87,1000.00"/>
    </edge>
    <edge id=":6_12" function="internal">
        <lane id=":6_12_0" index="0" speed="10.88" length="17.57" shape="1004.24,1000.00 999.80,997.80 996.35,993.05 995.20,986.40"/>
    </edge>
    <edge id=":6_13" function="internal">
        <lane id=":6_13_0" index="0" speed="10.36" length="16.53" shape="1005.87,1000.00 1002.20,997.80 999.35,993.05 998.40,986.40"/>
    </edge>
    <edge id=":6_5" function="internal">
        <lane id=":6_5_0" index="0" speed="6.51" length="9.03" shape="1008.00,986.40 1008.35,988.85 1009.40,990.60 1011.15,991.65 1013.60,992.00"/>
    </edge>
    <edge id=":6_6" function="internal">
        <lane id=":6_6_0" index="0" speed="11.36" length="29.67" shape="1004.80,986.40 1003.65,994.45 1000.20,1000.20 994.45,1003.65 986.40,1004.80"/>
    </edge>
    <edge id=":6_7" function="internal">
        <lane id=":6_7_0" index="0" speed="10.36" length="24.51" shape="1001.60,986.40 1000.65,993.05 997.80,997.80 993.05,1000.65 986.40,1001.60"/>
    </edge>
    <edge id=":6_8" function="internal">
        <lane id=":6_8_0" index="0" speed="6.51" length="9.03" shape="986.40,992.00 988.85,991.65 990.60,990.60 991.65,988.85 992.00,986.40"/>
    </edge>
    <edge id=":6_9" function="internal">
        <lane id=":6_9_0" index="0" speed="13.89" length="27.20" shape="986.40,992.00 1013.60,992.00"/>
        <lane id=":6_9_1" index="1" speed="13.89" length="27.20" shape="986.40,995.20 1013.60,995.20"/>
        <lane id=":6_9_2" index="2" speed="13.89" length="27.20" shape="986.40,998.40 1013.60,998.40"/>
    </edge>
    <edge id=":911_0" function="internal">
        <lane id=":911_0_0" index="0" speed="13.89" length="0.10" shape="-500.00,1008.00 -500.00,1008.00"/>
        <lane id=":911_0_1" index="1" speed="13.89" length="0.10" shape="-500.00,1004.80 -500.00,1004.80"/>
        <lane id=":911_0_2" index="2" speed="13.89" length="0.10" shape="-500.00,1001.60 -500.00,1001.60"/>
    </edge>
    <edge id=":911_3" function="internal">
        <lane id=":911_3_0" index="0" speed="13.89" length="0.10" shape="-500.00,995.20 -500.00,995.20"/>
        <lane id=":911_3_1" index="1" speed="13.89" length="0.10" shape="-500.00,998.40 -500.00,998.40"/>
    </edge>
    <edge id=":912_0" function="internal">
        <lane id=":912_0_0" index="0" speed="13.89" length="0.10" shape="-500.00,8.00 -500.00,8.00"/>
        <lane id=":912_0_1" index="1" speed="13.89" length="0.10" shape="-500.00,4.80 -500.00,4.80"/>
        <lane id=":912_0_2" index="2" speed="13.89" length="0.10" shape="-500.00,1.60 -500.00,1.60"/>
    </edge>
    <edge id=":912_3" function="internal">
        <lane id=":912_3_0" index="0" speed="13.89" length="0.10" shape="-500.00,-4.80 -500.00,-4.80"/>
        <lane id=":912_3_1" index="1" speed="13.89" length="0.10" shape="-500.00,-1.60 -500.00,-1.60"/>
    </edge>
    <edge id=":913_0" function="internal">
        <lane id=":913_0_0" index="0" speed="13.89" length="0.10" shape="2500.00,4.80 2500.00,4.80"/>
        <lane id=":913_0_1" index="1" speed="13.89" length="0.10" shape="2500.00,1.60 2500.00,1.60"/>
    </edge>
    <edge id=":913_2" function="internal">
        <lane id=":913_2_0" index="0" speed="13.89" length="0.10" shape="2500.00,-8.00 2500.00,-8.00"/>
        <lane id=":913_2_1" index="1" speed="13.89" length="0.10" shape="2500.00,-4.80 2500.00,-4.80"/>
        <lane id=":913_2_2" index="2" speed="13.89" length="0.10" shape="2500.00,-1.60 2500.00,-1.60"/>
    </edge>
    <edge id=":914_0" function="internal">
        <lane id=":914_0_0" index="0" speed="13.89" length="0.10" shape="2500.00,1004.80 2500.00,1004.80"/>
        <lane id=":914_0_1" index="1" speed="13.89" length="0.10" shape="2500.00,1001.60 2500.00,1001.60"/>
    </edge>
    <edge id=":914_2" function="internal">
        <lane id=":914_2_0" index="0" speed="13.89" length="0.10" shape="2500.00,992.00 2500.00,992.00"/>
        <lane id=":914_2_1" index="1" speed="13.89" length="0.10" shape="2500.00,995.20 2500.00,995.20"/>
        <lane id=":914_2_2" index="2" speed="13.89" length="0.10" shape="2500.00,998.40 2500.00,998.40"/>
    </edge>

    <edge id="D1" from="911" to="91" priority="-1">
        <lane id="D1_0" index="0" speed="13.89" length="500.00" shape="-500.00,1008.00 -1000.00,1008.00"/>
        <lane id="D1_1" index="1" speed="13.89" length="500.00" shape="-500.00,1004.80 -1000.00,1004.80"/>
        <lane id="D1_2" index="2" speed="13.89" length="500.00" shape="-500.00,1001.60 -1000.00,1001.60"/>
    </edge>
    <edge id="D2" from="91" to="911" priority="-1">
        <lane id="D2_0" index="0" speed="13.89" length="500.00" shape="-1000.00,995.20 -500.00,995.20"/>
        <lane id="D2_1" index="1" speed="13.89" length="500.00" shape="-1000.00,998.40 -500.00,998.40"/>
    </edge>
    <edge id="D3" from="912" to="92" priority="-1">
        <lane id="D3_0" index="0" speed="13.89" length="500.00" shape="-500.00,8.00 -1000.00,8.00"/>
        <lane id="D3_1" index="1" speed="13.89" length="500.00" shape="-500.00,4.80 -1000.00,4.80"/>
        <lane id="D3_2" index="2" speed="13.89" length="500.00" shape="-500.00,1.60 -1000.00,1.60"/>
    </edge>
    <edge id="D4" from="92" to="912" priority="-1">
        <lane id="D4_0" index="0" speed="13.89" length="500.00" shape="-1000.00,-4.80 -500.00,-4.80"/>
        <lane id="D4_1" index="1" speed="13.89" length="500.00" shape="-1000.00,-1.60 -500.00,-1.60"/>
    </edge>
    <edge id="D5" from="913" to="93" priority="-1">
        <lane id="D5_0" index="0" speed="13.89" length="500.00" shape="2500.00,-8.00 3000.00,-8.00"/>
        <lane id="D5_1" index="1" speed="13.89" length="500.00" shape="2500.00,-4.80 3000.00,-4.80"/>
        <lane id="D5_2" index="2" speed="13.89" length="500.00" shape="2500.00,-1.60 3000.00,-1.60"/>
    </edge>
    <edge id="D6" from="93" to="913" priority="-1">
        <lane id="D6_0" index="0" speed="13.89" length="500.00" shape="3000.00,4.80 2500.00,4.80"/>
        <lane id="D6_1" index="1" speed="13.89" length="500.00" shape="3000.00,1.60 2500.00,1.60"/>
    </edge>
    <edge id="D7" from="914" to="94" priority="-1">
        <lane id="D7_0" index="0" speed="13.89" length="500.00" shape="2500.00,992.00 3000.00,992.00"/>
        <lane id="D7_1" index="1" speed="13.89" length="500.00" shape="2500.00,995.20 3000.00,995.20"/>
        <lane id="D7_2" index="2" speed="13.89" length="500.00" shape="2500.00,998.40 3000.00,998.40"/>
    </edge>
    <edge id="D8" from="94" to="914" priority="-1">
        <lane id="D8_0" index="0" speed="13.89" length="500.00" shape="3000.00,1004.80 2500.00,1004.80"/>
        <lane id="D8_1" index="1" speed="13.89" length="500.00" shape="3000.00,1001.60 2500.00,1001.60"/>
    </edge>
    <edge id="L1" from="1" to="911" priority="-1">
        <lane id="L1_0" index="0" speed="13.89" length="496.00" shape="-4.00,1008.00 -500.00,1008.00"/>
        <lane id="L1_1" index="1" speed="13.89" length="496.00" shape="-4.00,1004.80 -500.00,1004.80"/>
        <lane id="L1_2" index="2" speed="13.89" length="496.00" shape="-4.00,1001.60 -500.00,1001.60"/>
    </edge>
    <edge id="L10" from="6" to="5" priority="-1">
        <lane id="L10_0" index="0" speed="13.89" length="982.40" shape="1013.60,992.00 1996.00,992.00"/>
        <lane id="L10_1" index="1" speed="13.89" length="982.40" shape="1013.60,995.20 1996.00,995.20"/>
        <lane id="L10_2" index="2" speed="13.89" length="982.40" shape="1013.60,998.40 1996.00,998.40"/>
    </edge>
    <edge id="L11" from="6" to="1" priority="-1">
        <lane id="L11_0" index="0" speed="13.89" length="982.40" shape="986.40,1008.00 4.00,1008.00"/>
        <lane id="L11_1" index="1" speed="13.89" length="982.40" shape="986.40,1004.80 4.00,1004.80"/>
        <lane id="L11_2" index="2" speed="13.89" length="982.40" shape="986.40,1001.60 4.00,1001.60"/>
    </edge>
    <edge id="L12" from="1" to="6" priority="-1">
        <lane id="L12_0" index="0" speed="13.89" length="982.40" shape="4.00,992.00 986.40,992.00"/>
        <lane id="L12_1" index="1" speed="13.89" length="982.40" shape="4.00,995.20 986.40,995.20"/>
        <lane id="L12_2" index="2" speed="13.89" length="982.40" shape="4.00,998.40 986.40,998.40"/>
    </edge>
    <edge id="L13" from="3" to="2" priority="-1">
        <lane id="L13_0" index="0" speed="13.89" length="982.40" shape="986.40,8.00 4.00,8.00"/>
        <lane id="L13_1" index="1" speed="13.89" length="982.40" shape="986.40,4.80 4.00,4.80"/>
        <lane id="L13_2" index="2" speed="13.89" length="982.40" shape="986.40,1.60 4.00,1.60"/>
    </edge>
    <edge id="L14" from="2" to="3" priority="-1">
        <lane id="L14_0" index="0" speed="13.89" length="982.40" shape="4.00,-8.00 986.40,-8.00"/>
        <lane id="L14_1" index="1" speed="13.89" length="982.40" shape="4.00,-4.80 986.40,-4.80"/>
        <lane id="L14_2" index="2" speed="13.89" length="982.40" shape="4.00,-1.60 986.40,-1.60"/>
    </edge>
    <edge id="L15" from="6" to="3" priority="-1">
        <lane id="L15_0" index="0" speed="13.89" length="972.80" shape="992.00,986.40 992.00,13.60"/>
        <lane id="L15_1" index="1" speed="13.89" length="972.80" shape="995.20,986.40 995.20,13.60"/>
        <lane id="L15_2" index="2" speed="13.89" length="972.80" shape="998.40,986.40 998.40,13.60"/>
    </edge>
    <edge id="L16" from="3" to="6" priority="-1">
        <lane id="L16_0" index="0" speed="13.89" length="972.80" shape="1008.00,13.60 1008.00,986.40"/>
        <lane id="L16_1" index="1" speed="13.89" length="972.80" shape="1004.80,13.60 1004.80,986.40"/>
        <lane id="L16_2" index="2" speed="13.89" length="972.80" shape="1001.60,13.60 1001.60,986.40"/>
    </edge>
    <edge id="L17" from="4" to="3" priority="-1">
        <lane id="L17_0" index="0" speed="13.89" length="982.40" shape="1996.00,8.00 1013.60,8.00"/>
        <lane id="L17_1" index="1" speed="13.89" length="982.40" shape="1996.00,4.80 1013.60,4.80"/>
        <lane id="L17_2" index="2" speed="13.89" length="982.40" shape="1996.00,1.60 1013.60,1.60"/>
    </edge>
    <edge id="L18" from="3" to="4" priority="-1">
        <lane id="L18_0" index="0" speed="13.89" length="982.40" shape="1013.60,-8.00 1996.00,-8.00"/>
        <lane id="L18_1" index="1" speed="13.89" length="982.40" shape="1013.60,-4.80 1996.00,-4.80"/>
        <lane id="L18_2" index="2" speed="13.89" length="982.40" shape="1013.60,-1.60 1996.00,-1.60"/>
    </edge>
    <edge id="L2" from="911" to="1" priority="-1">
        <lane id="L2_0" index="0" speed="13.89" length="496.00" shape="-500.00,995.20 -4.00,995.20"/>
        <lane id="L2_1" index="1" speed="13.89" length="496.00" shape="-500.00,998.40 -4.00,998.40"/>
    </edge>
    <edge id="L3" from="2" to="912" priority="-1">
        <lane id="L3_0" index="0" speed="13.89" length="496.00" shape="-4.00,8.00 -500.00,8.00"/>
        <lane id="L3_1" index="1" speed="13.89" length="496.00" shape="-4.00,4.80 -500.00,4.80"/>
        <lane id="L3_2" index="2" speed="13.89" length="496.00" shape="-4.00,1.60 -500.00,1.60"/>
    </edge>
    <edge id="L4" from="912" to="2" priority="-1">
        <lane id="L4_0" index="0" speed="13.89" length="496.00" shape="-500.00,-4.80 -4.00,-4.80"/>
        <lane id="L4_1" index="1" speed="13.89" length="496.00" shape="-500.00,-1.60 -4.00,-1.60"/>
    </edge>
    <edge id="L5" from="4" to="913" priority="-1">
        <lane id="L5_0" index="0" speed="13.89" length="496.00" shape="2004.00,-8.00 2500.00,-8.00"/>
        <lane id="L5_1" index="1" speed="13.89" length="496.00" shape="2004.00,-4.80 2500.00,-4.80"/>
        <lane id="L5_2" index="2" speed="13.89" length="496.00" shape="2004.00,-1.60 2500.00,-1.60"/>
    </edge>
    <edge id="L6" from="913" to="4" priority="-1">
        <lane id="L6_0" index="0" speed="13.89" length="496.00" shape="2500.00,4.80 2004.00,4.80"/>
        <lane id="L6_1" index="1" speed="13.89" length="496.00" shape="2500.00,1.60 2004.00,1.60"/>
    </edge>
    <edge id="L7" from="5" to="914" priority="-1">
        <lane id="L7_0" index="0" speed="13.89" length="496.00" shape="2004.00,992.00 2500.00,992.00"/>
        <lane id="L7_1" index="1" speed="13.89" length="496.00" shape="2004.00,995.20 2500.00,995.20"/>
        <lane id="L7_2" index="2" speed="13.89" length="496.00" shape="2004.00,998.40 2500.00,998.40"/>
    </edge>
    <edge id="L8" from="914" to="5" priority="-1">
        <lane id="L8_0" index="0" speed="13.89" length="496.00" shape="2500.00,1004.80 2004.00,1004.80"/>
        <lane id="L8_1" index="1" speed="13.89" length="496.00" shape="2500.00,1001.60 2004.00,1001.60"/>
    </edge>
    <edge id="L9" from="5" to="6" priority="-1">
        <lane id="L9_0" index="0" speed="13.89" length="982.40" shape="1996.00,1008.00 1013.60,1008.00"/>
        <lane id="L9_1" index="1" speed="13.89" length="982.40" shape="1996.00,1004.80 1013.60,1004.80"/>
        <lane id="L9_2" index="2" speed="13.89" length="982.40" shape="1996.00,1001.60 1013.60,1001.60"/>
    </edge>

    <junction id="1" type="priority" x="0.00" y="1000.00" incLanes="L11_0 L11_1 L11_2 L2_0 L2_1" intLanes=":1_0_0 :1_0_1 :1_0_2 :1_3_0 :1_3_1 :1_3_2" shape="4.00,1009.60 4.00,990.40 0.97,991.23 -0.97,992.77 -2.21,993.36 -4.00,993.60 -4.00,1009.60">
        <request index="0" response="000000" foes="000000" cont="0"/>
        <request index="1" response="000000" foes="000000" cont="0"/>
        <request index="2" response="000000" foes="000000" cont="0"/>
        <request index="3" response="000000" foes="000000" cont="0"/>
        <request index="4" response="000000" foes="000000" cont="0"/>
        <request index="5" response="000000" foes="000000" cont="0"/>
    </junction>
    <junction id="2" type="priority" x="0.00" y="0.00" incLanes="L13_0 L13_1 L13_2 L4_0 L4_1" intLanes=":2_0_0 :2_0_1 :2_0_2 :2_3_0 :2_3_1 :2_3_2" shape="4.00,9.60 4.00,-9.60 0.97,-8.77 -0.97,-7.23 -2.21,-6.64 -4.00,-6.40 -4.00,9.60">
        <request index="0" response="000000" foes="000000" cont="0"/>
        <request index="1" response="000000" foes="000000" cont="0"/>
        <request index="2" response="000000" foes="000000" cont="0"/>
        <request index="3" response="000000" foes="000000" cont="0"/>
        <request index="4" response="000000" foes="000000" cont="0"/>
        <request index="5" response="000000" foes="000000" cont="0"/>
    </junction>
    <junction id="3" type="priority" x="1000.00" y="0.00" incLanes="L15_0 L15_1 L15_2 L17_0 L17_1 L17_2 L14_0 L14_1 L14_2" intLanes=":3_0_0 :3_1_0 :3_2_0 :3_3_0 :3_4_0 :3_4_1 :3_4_2 :3_7_0 :3_7_1 :3_7_2 :3_12_0 :3_13_0" shape="990.40,13.60 1009.60,13.60 1010.04,11.38 1010.60,10.60 1011.38,10.04 1012.38,9.71 1013.60,9.60 1013.60,-9.60 986.40,-9.60 986.40,9.60 988.62,10.04 989.40,10.60 989.96,11.38 990.29,12.38">
        <request index="0"  response="000001110000" foes="000001110000" cont="0"/>
        <request index="1"  response="111111110000" foes="111111110000" cont="0"/>
        <request index="2"  response="111111110000" foes="111111110000" cont="0"/>
        <request index="3"  response="000000000000" foes="000000000000" cont="0"/>
        <request index="4"  response="000000000000" foes="110000000111" cont="0"/>
        <request index="5"  response="000000000000" foes="110000000111" cont="0"/>
        <request index="6"  response="000000000000" foes="110000000111" cont="0"/>
        <request index="7"  response="000000000000" foes="000000000110" cont="0"/>
        <request index="8"  response="000000000000" foes="000000000110" cont="0"/>
        <request index="9"  response="000000000000" foes="000000000110" cont="0"/>
        <request index="10" response="000001110000" foes="000001110110" cont="1"/>
        <request index="11" response="000001110000" foes="000001110110" cont="1"/>
    </junction>
    <junction id="4" type="priority" x="2000.00" y="0.00" incLanes="L6_0 L6_1 L18_0 L18_1 L18_2" intLanes=":4_0_0 :4_0_1 :4_0_2 :4_3_0 :4_3_1 :4_3_2" shape="2004.00,6.40 2004.00,-9.60 1996.00,-9.60 1996.00,9.60 1999.03,8.77 2000.97,7.23 2002.21,6.64">
        <request index="0" response="000000" foes="000000" cont="0"/>
        <request index="1" response="000000" foes="000000" cont="0"/>
        <request index="2" response="000000" foes="000000" cont="0"/>
        <request index="3" response="000000" foes="000000" cont="0"/>
        <request index="4" response="000000" foes="000000" cont="0"/>
        <request index="5" response="000000" foes="000000" cont="0"/>
    </junction>
    <junction id="5" type="priority" x="2000.00" y="1000.00" incLanes="L8_0 L8_1 L10_0 L10_1 L10_2" intLanes=":5_0_0 :5_0_1 :5_0_2 :5_3_0 :5_3_1 :5_3_2" shape="2004.00,1006.40 2004.00,990.40 1996.00,990.40 1996.00,1009.60 1999.03,1008.77 2000.97,1007.23 2002.21,1006.64">
        <request index="0" response="000000" foes="000000" cont="0"/>
        <request index="1" response="000000" foes="000000" cont="0"/>
        <request index="2" response="000000" foes="000000" cont="0"/>
        <request index="3" response="000000" foes="000000" cont="0"/>
        <request index="4" response="000000" foes="000000" cont="0"/>
        <request index="5" response="000000" foes="000000" cont="0"/>
    </junction>
    <junction id="6" type="priority" x="1000.00" y="1000.00" incLanes="L9_0 L9_1 L9_2 L16_0 L16_1 L16_2 L12_0 L12_1 L12_2" intLanes=":6_0_0 :6_0_1 :6_0_2 :6_12_0 :6_13_0 :6_5_0 :6_6_0 :6_7_0 :6_8_0 :6_9_0 :6_9_1 :6_9_2" shape="1013.60,1009.60 1013.60,990.40 1011.38,989.96 1010.60,989.40 1010.04,988.62 1009.71,987.62 1009.60,986.40 990.40,986.40 989.96,988.62 989.40,989.40 988.62,989.96 987.62,990.29 986.40,990.40 986.40,1009.60">
        <request index="0"  response="000000000000" foes="000011000000" cont="0"/>
        <request index="1"  response="000000000000" foes="000011000000" cont="0"/>
        <request index="2"  response="000000000000" foes="000011000000" cont="0"/>
        <request index="3"  response="111000000000" foes="111011000000" cont="1"/>
        <request index="4"  response="111000000000" foes="111011000000" cont="1"/>
        <request index="5"  response="111000000000" foes="111000000000" cont="0"/>
        <request index="6"  response="111000011111" foes="111000011111" cont="0"/>
        <request index="7"  response="111000011111" foes="111000011111" cont="0"/>
        <request index="8"  response="000000000000" foes="000000000000" cont="0"/>
        <request index="9"  response="000000000000" foes="000011111000" cont="0"/>
        <request index="10" response="000000000000" foes="000011111000" cont="0"/>
        <request index="11" response="000000000000" foes="000011111000" cont="0"/>
    </junction>
    <junction id="91" type="dead_end" x="-1000.00" y="1000.00" incLanes="D1_0 D1_1 D1_2" intLanes="" shape="-1000.00,1000.00 -1000.00,1009.60 -1000.00,1000.00"/>
    <junction id="911" type="priority" x="-500.00" y="1000.00" incLanes="L1_0 L1_1 L1_2 D2_0 D2_1" intLanes=":911_0_0 :911_0_1 :911_0_2 :911_3_0 :911_3_1" shape="-500.00,1009.60 -500.00,993.60 -500.00,1009.60">
        <request index="0" response="00000" foes="00000" cont="0"/>
        <request index="1" response="00000" foes="00000" cont="0"/>
        <request index="2" response="00000" foes="00000" cont="0"/>
        <request index="3" response="00000" foes="00000" cont="0"/>
        <request index="4" response="00000" foes="00000" cont="0"/>
    </junction>
    <junction id="912" type="priority" x="-500.00" y="0.00" incLanes="L3_0 L3_1 L3_2 D4_0 D4_1" intLanes=":912_0_0 :912_0_1 :912_0_2 :912_3_0 :912_3_1" shape="-500.00,9.60 -500.00,-6.40 -500.00,9.60">
        <request index="0" response="00000" foes="00000" cont="0"/>
        <request index="1" response="00000" foes="00000" cont="0"/>
        <request index="2" response="00000" foes="00000" cont="0"/>
        <request index="3" response="00000" foes="00000" cont="0"/>
        <request index="4" response="00000" foes="00000" cont="0"/>
    </junction>
    <junction id="913" type="priority" x="2500.00" y="0.00" incLanes="D6_0 D6_1 L5_0 L5_1 L5_2" intLanes=":913_0_0 :913_0_1 :913_2_0 :913_2_1 :913_2_2" shape="2500.00,6.40 2500.00,-9.60 2500.00,6.40">
        <request index="0" response="00000" foes="00000" cont="0"/>
        <request index="1" response="00000" foes="00000" cont="0"/>
        <request index="2" response="00000" foes="00000" cont="0"/>
        <request index="3" response="00000" foes="00000" cont="0"/>
        <request index="4" response="00000" foes="00000" cont="0"/>
    </junction>
    <junction id="914" type="priority" x="2500.00" y="1000.00" incLanes="D8_0 D8_1 L7_0 L7_1 L7_2" intLanes=":914_0_0 :914_0_1 :914_2_0 :914_2_1 :914_2_2" shape="2500.00,1006.40 2500.00,990.40 2500.00,1006.40">
        <request index="0" response="00000" foes="00000" cont="0"/>
        <request index="1" response="00000" foes="00000" cont="0"/>
        <request index="2" response="00000" foes="00000" cont="0"/>
        <request index="3" response="00000" foes="00000" cont="0"/>
        <request index="4" response="00000" foes="00000" cont="0"/>
    </junction>
    <junction id="92" type="dead_end" x="-1000.00" y="0.00" incLanes="D3_0 D3_1 D3_2" intLanes="" shape="-1000.00,0.00 -1000.00,9.60 -1000.00,0.00"/>
    <junction id="93" type="dead_end" x="3000.00" y="0.00" incLanes="D5_0 D5_1 D5_2" intLanes="" shape="3000.00,0.00 3000.00,-9.60 3000.00,0.00"/>
    <junction id="94" type="dead_end" x="3000.00" y="1000.00" incLanes="D7_0 D7_1 D7_2" intLanes="" shape="3000.00,1000.00 3000.00,990.40 3000.00,1000.00"/>

    <junction id=":3_12_0" type="internal" x="995.76" y="-0.00" incLanes=":3_10_0 L17_0 L17_1 L17_2" intLanes=":3_1_0 :3_2_0 :3_4_0 :3_4_1 :3_4_2"/>
    <junction id=":3_13_0" type="internal" x="994.13" y="-0.00" incLanes=":3_11_0 L17_0 L17_1 L17_2" intLanes=":3_1_0 :3_2_0 :3_4_0 :3_4_1 :3_4_2"/>
    <junction id=":6_12_0" type="internal" x="1004.24" y="1000.00" incLanes=":6_3_0 L12_0 L12_1 L12_2" intLanes=":6_6_0 :6_7_0 :6_9_0 :6_9_1 :6_9_2"/>
    <junction id=":6_13_0" type="internal" x="1005.87" y="1000.00" incLanes=":6_4_0 L12_0 L12_1 L12_2" intLanes=":6_6_0 :6_7_0 :6_9_0 :6_9_1 :6_9_2"/>

    <connection from="D2" to="L2" fromLane="0" toLane="0" via=":911_3_0" dir="s" state="M"/>
    <connection from="D2" to="L2" fromLane="1" toLane="1" via=":911_3_1" dir="s" state="M"/>
    <connection from="D4" to="L4" fromLane="0" toLane="0" via=":912_3_0" dir="s" state="M"/>
    <connection from="D4" to="L4" fromLane="1" toLane="1" via=":912_3_1" dir="s" state="M"/>